data_pbso4

_cell_length_a 8.4656(0.0002)
_cell_length_b 5.3886(0.0001)
_cell_length_c 6.9475(0.0001)
_cell_angle_alpha 90
_cell_angle_beta 90
_cell_angle_gamma 90
_space_group_name_H-M_alt "P n m a"
_space_group_IT_coordinate_system_code abc

loop_
_atom_site_label
_atom_site_type_symbol
_atom_site_fract_x
_atom_site_fract_y
_atom_site_fract_z
_atom_site_occupancy
_atom_site_adp_type
_atom_site_B_iso_or_equiv
_atom_site_multiplicity
_atom_site_Wyckoff_symbol
Pb Pb 0.1876(0.0001) 0.25 0.167(0.0001) 1 Biso 1.3949(0.0189) 4 c 
S S 0.0654(0.0003) 0.25 0.6845(0.0004) 1 Biso 0.3947(0.0403) 4 c 
O1 O 0.9082(0.0002) 0.25 0.5953(0.0002) 1 Biso 2.0192(0.0321) 4 c 
O2 O 0.1934(0.0002) 0.25 0.543(0.0002) 1 Biso 1.4274(0.0298) 4 c 
O3 O 0.0812(0.0001) 0.0272(0.0002) 0.8084(0.0001) 1 Biso 1.3054(0.0185) 8 d

data_d1a

_diffrn_radiation_probe neutron
_diffrn_radiation_wavelength 1.91
_pd_meas_2theta_offset -0.1407
_pd_instr_resolution_u 0.1911(0.0045)
_pd_instr_resolution_v -0.4837(0.0078)
_pd_instr_resolution_w 0.4149(0.0041)
_pd_instr_resolution_x 0
_pd_instr_resolution_y 0.086(0.0014)
_pd_meas_2theta_range_min 10
_pd_meas_2theta_range_max 155.45
_pd_meas_2theta_range_inc 0.05
_pd_instr_reflex_asymmetry_p1 -0.37(0.0196)
_pd_instr_reflex_asymmetry_p2 0.0005(0.0042)
_pd_instr_reflex_asymmetry_p3 0.2223(0.0485)
_pd_instr_reflex_asymmetry_p4 -0.099(0.0112)

loop_
_phase_label
_phase_scale
pbso4 1.4658(0.0041) 

loop_
_pd_background_2theta
_pd_background_intensity
11 206.2591 
15 194.7149 
20 194.844 
30 188.2125 
50 207.748 
70 201.6625 
120 245.7023 
153 226.0801

loop_
_pd_proc_2theta
_pd_proc_2theta_corrected
_pd_proc_intensity_plus_net
_pd_proc_intensity_minus_net
_pd_proc_intensity_bkg_calc
_pd_proc_intensity
_pd_proc_intensity_sigma
_pd_proc_excluded
   10.00    10.14      1.81      1.81   209.15    220.00   14.83   False
   10.05    10.19      1.80      1.80   209.00    214.00   14.63   False
   10.10    10.24      1.79      1.79   208.86    219.00   14.80   False
   10.15    10.29      1.77      1.77   208.71    224.00   14.97   False
   10.20    10.34      1.76      1.76   208.57    198.00   14.07   False
   10.25    10.39      1.75      1.75   208.42    229.00   15.13   False
   10.30    10.44      1.74      1.74   208.28    224.00   14.97   False
   10.35    10.49      1.72      1.72   208.14    216.00   14.70   False
   10.40    10.54      1.71      1.71   207.99    202.00   14.21   False
   10.45    10.59      1.70      1.70   207.85    229.00   15.13   False
   10.50    10.64      1.69      1.69   207.70    202.00   14.21   False
   10.55    10.69      1.68      1.68   207.56    215.00   14.66   False
   10.60    10.74      1.66      1.66   207.41    215.00   14.66   False
   10.65    10.79      1.65      1.65   207.27    196.00   14.00   False
   10.70    10.84      1.64      1.64   207.12    235.00   15.33   False
   10.75    10.89      1.63      1.63   206.98    207.00   14.39   False
   10.80    10.94      1.62      1.62   206.84    205.00   14.32   False
   10.85    10.99      1.61      1.61   206.69    238.00   15.43   False
   10.90    11.04      1.60      1.60   206.55    202.00   14.21   False
   10.95    11.09      1.59      1.59   206.40    213.00   14.59   False
   11.00    11.14      1.58      1.58   206.26    226.00   15.03   False
   11.05    11.19      1.57      1.57   206.11    198.00   14.07   False
   11.10    11.24      1.56      1.56   205.97    222.00   14.90   False
   11.15    11.29      1.55      1.55   205.83    186.00   13.64   False
   11.20    11.34      1.54      1.54   205.68    216.00   14.70   False
   11.25    11.39      1.53      1.53   205.54    218.00   14.76   False
   11.30    11.44      1.52      1.52   205.39    225.00   15.00   False
   11.35    11.49      1.51      1.51   205.25    200.00   14.14   False
   11.40    11.54      1.50      1.50   205.10    196.00   14.00   False
   11.45    11.59      1.49      1.49   204.96    224.00   14.97   False
   11.50    11.64      1.48      1.48   204.82    199.00   14.11   False
   11.55    11.69      1.47      1.47   204.67    204.00   14.28   False
   11.60    11.74      1.46      1.46   204.53    189.00   13.75   False
   11.65    11.79      1.46      1.46   204.38    211.00   14.53   False
   11.70    11.84      1.45      1.45   204.24    190.00   13.78   False
   11.75    11.89      1.44      1.44   204.09    184.00   13.56   False
   11.80    11.94      1.43      1.43   203.95    204.00   14.28   False
   11.85    11.99      1.42      1.42   203.81    204.00   14.28   False
   11.90    12.04      1.41      1.41   203.66    219.00   14.80   False
   11.95    12.09      1.41      1.41   203.52    207.00   14.39   False
   12.00    12.14      1.40      1.40   203.37    227.00   15.07   False
   12.05    12.19      1.39      1.39   203.23    211.00   10.27   False
   12.10    12.24      1.38      1.38   203.08    193.00    9.82   False
   12.15    12.29      1.38      1.38   202.94    206.00   10.15   False
   12.20    12.34      1.37      1.37   202.80    208.00   10.20   False
   12.25    12.39      1.36      1.36   202.65    191.00    9.77   False
   12.30    12.44      1.35      1.35   202.51    194.00    9.85   False
   12.35    12.49      1.35      1.35   202.36    185.00    9.62   False
   12.40    12.54      1.34      1.34   202.22    200.00   10.00   False
   12.45    12.59      1.33      1.33   202.07    203.00   10.07   False
   12.50    12.64      1.32      1.32   201.93    197.00    9.92   False
   12.55    12.69      1.32      1.32   201.79    203.00   10.07   False
   12.60    12.74      1.31      1.31   201.64    200.00   10.00   False
   12.65    12.79      1.30      1.30   201.50    200.00   10.00   False
   12.70    12.84      1.30      1.30   201.35    205.00   10.12   False
   12.75    12.89      1.29      1.29   201.21    208.00   10.20   False
   12.80    12.94      1.28      1.28   201.06    205.00   10.12   False
   12.85    12.99      1.28      1.28   200.92    201.00   10.03   False
   12.90    13.04      1.27      1.27   200.78    221.00   10.51   False
   12.95    13.09      1.27      1.27   200.63    218.00   10.44   False
   13.00    13.14      1.26      1.26   200.49    218.00   10.44   False
   13.05    13.19      1.25      1.25   200.34    216.00   10.39   False
   13.10    13.24      1.25      1.25   200.20    202.00   10.05   False
   13.15    13.29      1.24      1.24   200.05    206.00   10.15   False
   13.20    13.34      1.24      1.24   199.91    197.00    9.92   False
   13.25    13.39      1.23      1.23   199.77    210.00   10.25   False
   13.30    13.44      1.22      1.22   199.62    199.00    9.97   False
   13.35    13.49      1.22      1.22   199.48    219.00   10.46   False
   13.40    13.54      1.21      1.21   199.33    192.00    9.80   False
   13.45    13.59      1.21      1.21   199.19    211.00   10.27   False
   13.50    13.64      1.20      1.20   199.04    199.00    9.97   False
   13.55    13.69      1.20      1.20   198.90    196.00    9.90   False
   13.60    13.74      1.19      1.19   198.76    195.00    9.87   False
   13.65    13.79      1.19      1.19   198.61    203.00   10.07   False
   13.70    13.84      1.18      1.18   198.47    202.00   10.05   False
   13.75    13.89      1.18      1.18   198.32    200.00   10.00   False
   13.80    13.94      1.17      1.17   198.18    199.00    9.97   False
   13.85    13.99      1.17      1.17   198.03    191.00    9.77   False
   13.90    14.04      1.16      1.16   197.89    204.00   10.10   False
   13.95    14.09      1.16      1.16   197.75    191.00    9.77   False
   14.00    14.14      1.15      1.15   197.60    200.00   10.00   False
   14.05    14.19      1.15      1.15   197.46    199.00    9.97   False
   14.10    14.24      1.14      1.14   197.31    197.00    9.92   False
   14.15    14.29      1.14      1.14   197.17    202.00   10.05   False
   14.20    14.34      1.13      1.13   197.02    210.00   10.25   False
   14.25    14.39      1.13      1.13   196.88    202.00   10.05   False
   14.30    14.44      1.12      1.12   196.74    198.00    9.95   False
   14.35    14.49      1.12      1.12   196.59    191.00    9.77   False
   14.40    14.54      1.12      1.12   196.45    194.00    9.85   False
   14.45    14.59      1.11      1.11   196.30    198.00    9.95   False
   14.50    14.64      1.11      1.11   196.16    194.00    9.85   False
   14.55    14.69      1.10      1.10   196.01    193.00    9.82   False
   14.60    14.74      1.10      1.10   195.87    212.00   10.30   False
   14.65    14.79      1.10      1.10   195.73    214.00   10.34   False
   14.70    14.84      1.09      1.09   195.58    197.00    9.92   False
   14.75    14.89      1.09      1.09   195.44    195.00    9.87   False
   14.80    14.94      1.08      1.08   195.29    205.00   10.12   False
   14.85    14.99      1.08      1.08   195.15    209.00   10.22   False
   14.90    15.04      1.08      1.08   195.00    203.00   10.07   False
   14.95    15.09      1.07      1.07   194.86    197.00    9.92   False
   15.00    15.14      1.07      1.07   194.71    191.00    9.77   False
   15.05    15.19      1.07      1.07   194.72    192.00    9.80   False
   15.10    15.24      1.06      1.06   194.72    215.00   10.37   False
   15.15    15.29      1.06      1.06   194.72    194.00    9.85   False
   15.20    15.34      1.06      1.06   194.72    189.00    9.72   False
   15.25    15.39      1.05      1.05   194.72    188.00    9.70   False
   15.30    15.44      1.05      1.05   194.72    202.00   10.05   False
   15.35    15.49      1.05      1.05   194.72    201.00   10.03   False
   15.40    15.54      1.04      1.04   194.73    198.00    9.95   False
   15.45    15.59      1.04      1.04   194.73    208.00   10.20   False
   15.50    15.64      1.04      1.04   194.73    197.00    9.92   False
   15.55    15.69      1.03      1.03   194.73    187.00    9.67   False
   15.60    15.74      1.03      1.03   194.73    187.00    9.67   False
   15.65    15.79      1.03      1.03   194.73    190.00    9.75   False
   15.70    15.84      1.02      1.02   194.73    197.00    9.92   False
   15.75    15.89      1.02      1.02   194.73    200.00   10.00   False
   15.80    15.94      1.02      1.02   194.74    193.00    9.82   False
   15.85    15.99      1.02      1.02   194.74    180.00    9.49   False
   15.90    16.04      1.01      1.01   194.74    194.00    9.85   False
   15.95    16.09      1.01      1.01   194.74    206.00   10.15   False
   16.00    16.14      1.01      1.01   194.74    195.00    9.87   False
   16.05    16.19      1.00      1.00   194.74    193.00    9.82   False
   16.10    16.24      1.00      1.00   194.74    205.00   10.12   False
   16.15    16.29      1.00      1.00   194.74    194.00    9.85   False
   16.20    16.34      1.00      1.00   194.75    196.00    9.90   False
   16.25    16.39      0.99      0.99   194.75    194.00    9.85   False
   16.30    16.44      0.99      0.99   194.75    199.00    9.97   False
   16.35    16.49      0.99      0.99   194.75    207.00   10.17   False
   16.40    16.54      0.99      0.99   194.75    188.00    9.70   False
   16.45    16.59      0.99      0.99   194.75    203.00   10.07   False
   16.50    16.64      0.98      0.98   194.75    188.00    9.70   False
   16.55    16.69      0.98      0.98   194.75    180.00    9.49   False
   16.60    16.74      0.98      0.98   194.76    198.00    9.95   False
   16.65    16.79      0.98      0.98   194.76    200.00   10.00   False
   16.70    16.84      0.98      0.98   194.76    201.00   10.03   False
   16.75    16.89      0.97      0.97   194.76    210.00   10.25   False
   16.80    16.94      0.97      0.97   194.76    206.00   10.15   False
   16.85    16.99      0.97      0.97   194.76    189.00    9.72   False
   16.90    17.04      0.97      0.97   194.76    194.00    9.85   False
   16.95    17.09      0.97      0.97   194.77    187.00    9.67   False
   17.00    17.14      0.97      0.97   194.77    195.00    9.87   False
   17.05    17.19      0.97      0.97   194.77    201.00   10.03   False
   17.10    17.24      0.96      0.96   194.77    197.00    9.92   False
   17.15    17.29      0.96      0.96   194.77    206.00   10.15   False
   17.20    17.34      0.96      0.96   194.77    208.00   10.20   False
   17.25    17.39      0.96      0.96   194.77    199.00    9.97   False
   17.30    17.44      0.96      0.96   194.77    192.00    9.80   False
   17.35    17.49      0.96      0.96   194.78    193.00    9.82   False
   17.40    17.54      0.96      0.96   194.78    204.00   10.10   False
   17.45    17.59      0.96      0.96   194.78    201.00   10.03   False
   17.50    17.64      0.96      0.96   194.78    200.00   10.00   False
   17.55    17.69      0.96      0.96   194.78    177.00    9.41   False
   17.60    17.74      0.96      0.96   194.78    193.00    9.82   False
   17.65    17.79      0.96      0.96   194.78    199.00    9.97   False
   17.70    17.84      0.96      0.96   194.78    201.00   10.03   False
   17.75    17.89      0.96      0.96   194.79    194.00    9.85   False
   17.80    17.94      0.96      0.96   194.79    184.00    9.59   False
   17.85    17.99      0.96      0.96   194.79    192.00    9.80   False
   17.90    18.04      0.96      0.96   194.79    199.00    9.97   False
   17.95    18.09      0.96      0.96   194.79    190.00    9.75   False
   18.00    18.14      0.96      0.96   194.79    183.00    9.57   False
   18.05    18.19      0.96      0.96   194.79    189.00    7.94   False
   18.10    18.24      0.96      0.96   194.79    196.00    8.08   False
   18.15    18.29      0.96      0.96   194.80    196.00    8.08   False
   18.20    18.34      0.96      0.96   194.80    198.00    8.12   False
   18.25    18.39      0.97      0.97   194.80    210.00    8.37   False
   18.30    18.44      0.97      0.97   194.80    212.00    8.41   False
   18.35    18.49      0.97      0.97   194.80    219.00    8.54   False
   18.40    18.54      0.97      0.97   194.80    198.00    8.12   False
   18.45    18.59      0.98      0.98   194.80    195.00    8.06   False
   18.50    18.64      0.98      0.98   194.81    198.00    8.12   False
   18.55    18.69      0.99      0.99   194.81    191.00    7.98   False
   18.60    18.74      0.99      0.99   194.81    193.00    8.02   False
   18.65    18.79      1.00      1.00   194.81    197.00    8.10   False
   18.70    18.84      1.00      1.00   194.81    194.00    8.04   False
   18.75    18.89      1.01      1.01   194.81    187.00    7.90   False
   18.80    18.94      1.02      1.02   194.81    209.00    8.35   False
   18.85    18.99      1.04      1.04   194.81    187.00    7.90   False
   18.90    19.04      1.05      1.05   194.82    198.00    8.12   False
   18.95    19.09      1.07      1.07   194.82    206.00    8.29   False
   19.00    19.14      1.09      1.09   194.82    197.00    8.10   False
   19.05    19.19      1.12      1.12   194.82    191.00    7.98   False
   19.10    19.24      1.15      1.15   194.82    200.00    8.16   False
   19.15    19.29      1.19      1.19   194.82    207.00    8.31   False
   19.20    19.34      1.23      1.23   194.82    205.00    8.27   False
   19.25    19.39      1.29      1.29   194.82    198.00    8.12   False
   19.30    19.44      1.35      1.35   194.83    196.00    8.08   False
   19.35    19.49      1.44      1.44   194.83    209.00    8.35   False
   19.40    19.54      1.55      1.55   194.83    211.00    8.39   False
   19.45    19.59      1.70      1.70   194.83    203.00    8.23   False
   19.50    19.64      1.92      1.92   194.83    200.00    8.16   False
   19.55    19.69      2.23      2.23   194.83    192.00    8.00   False
   19.60    19.74      2.67      2.67   194.83    208.00    8.33   False
   19.65    19.79      3.30      3.30   194.83    213.00    8.43   False
   19.70    19.84      4.15      4.15   194.84    221.00    8.58   False
   19.75    19.89      5.27      5.27   194.84    216.00    8.49   False
   19.80    19.94      6.65      6.65   194.84    226.00    8.68   False
   19.85    19.99      8.27      8.27   194.84    228.00    8.72   False
   19.90    20.04     10.09     10.09   194.84    228.00    8.72   False
   19.95    20.09     12.04     12.04   194.84    215.00    8.47   False
   20.00    20.14     14.06     14.06   194.84    224.00    8.64   False
   20.05    20.19     16.10     16.10   194.81    226.00    8.68   False
   20.10    20.24     18.17     18.17   194.78    213.00    8.43   False
   20.15    20.29     20.24     20.24   194.74    239.00    8.93   False
   20.20    20.34     22.28     22.28   194.71    250.00    9.13   False
   20.25    20.39     24.14     24.14   194.68    247.00    9.07   False
   20.30    20.44     25.58     25.58   194.65    240.00    8.94   False
   20.35    20.49     26.31     26.31   194.61    231.00    8.78   False
   20.40    20.54     26.07     26.07   194.58    236.00    8.87   False
   20.45    20.59     24.73     24.73   194.55    223.00    8.62   False
   20.50    20.64     22.39     22.39   194.51    231.00    8.78   False
   20.55    20.69     19.28     19.28   194.48    226.00    8.68   False
   20.60    20.74     15.79     15.79   194.45    214.00    8.45   False
   20.65    20.79     12.30     12.30   194.41    208.00    8.33   False
   20.70    20.84      9.15      9.15   194.38    214.00    8.45   False
   20.75    20.89      6.53      6.53   194.35    196.00    8.08   False
   20.80    20.94      4.53      4.53   194.31    204.00    8.25   False
   20.85    20.99      3.12      3.12   194.28    199.00    8.14   False
   20.90    21.04      2.19      2.19   194.25    186.00    7.87   False
   20.95    21.09      1.62      1.62   194.21    192.00    8.00   False
   21.00    21.14      1.29      1.29   194.18    199.00    8.14   False
   21.05    21.19      1.11      1.11   194.15    200.00    8.16   False
   21.10    21.24      1.02      1.02   194.11    184.00    7.83   False
   21.15    21.29      0.97      0.97   194.08    184.00    7.83   False
   21.20    21.34      0.95      0.95   194.05    189.00    7.94   False
   21.25    21.39      0.94      0.94   194.02    182.00    7.79   False
   21.30    21.44      0.94      0.94   193.98    184.00    7.83   False
   21.35    21.49      0.94      0.94   193.95    185.00    7.85   False
   21.40    21.54      0.95      0.95   193.92    195.00    8.06   False
   21.45    21.59      0.95      0.95   193.88    190.00    7.96   False
   21.50    21.64      0.95      0.95   193.85    194.00    8.04   False
   21.55    21.69      0.95      0.95   193.82    185.00    7.85   False
   21.60    21.74      0.95      0.95   193.78    183.00    7.81   False
   21.65    21.79      0.95      0.95   193.75    193.00    8.02   False
   21.70    21.84      0.95      0.95   193.72    194.00    8.04   False
   21.75    21.89      0.95      0.95   193.68    193.00    8.02   False
   21.80    21.94      0.94      0.94   193.65    188.00    7.92   False
   21.85    21.99      0.94      0.94   193.62    191.00    7.98   False
   21.90    22.04      0.93      0.93   193.58    189.00    7.94   False
   21.95    22.09      0.93      0.93   193.55    188.00    7.92   False
   22.00    22.14      0.92      0.92   193.52    201.00    8.19   False
   22.05    22.19      0.92      0.92   193.48    195.00    8.06   False
   22.10    22.24      0.92      0.92   193.45    205.00    8.27   False
   22.15    22.29      0.91      0.91   193.42    200.00    8.16   False
   22.20    22.34      0.91      0.91   193.39    200.00    8.16   False
   22.25    22.39      0.91      0.91   193.35    192.00    8.00   False
   22.30    22.44      0.90      0.90   193.32    197.00    8.10   False
   22.35    22.49      0.90      0.90   193.29    204.00    8.25   False
   22.40    22.54      0.90      0.90   193.25    207.00    8.31   False
   22.45    22.59      0.89      0.89   193.22    192.00    8.00   False
   22.50    22.64      0.89      0.89   193.19    201.00    8.19   False
   22.55    22.69      0.89      0.89   193.15    190.00    7.96   False
   22.60    22.74      0.89      0.89   193.12    195.00    8.06   False
   22.65    22.79      0.89      0.89   193.09    194.00    8.04   False
   22.70    22.84      0.89      0.89   193.05    182.00    7.79   False
   22.75    22.89      0.89      0.89   193.02    189.00    7.94   False
   22.80    22.94      0.89      0.89   192.99    196.00    8.08   False
   22.85    22.99      0.88      0.88   192.95    196.00    8.08   False
   22.90    23.04      0.88      0.88   192.92    200.00    8.16   False
   22.95    23.09      0.88      0.88   192.89    190.00    7.96   False
   23.00    23.14      0.88      0.88   192.85    183.00    7.81   False
   23.05    23.19      0.88      0.88   192.82    199.00    8.14   False
   23.10    23.24      0.88      0.88   192.79    187.00    7.90   False
   23.15    23.29      0.88      0.88   192.76    196.00    8.08   False
   23.20    23.34      0.89      0.89   192.72    191.00    7.98   False
   23.25    23.39      0.89      0.89   192.69    191.00    7.98   False
   23.30    23.44      0.89      0.89   192.66    195.00    8.06   False
   23.35    23.49      0.89      0.89   192.62    194.00    8.04   False
   23.40    23.54      0.89      0.89   192.59    192.00    8.00   False
   23.45    23.59      0.89      0.89   192.56    182.00    7.79   False
   23.50    23.64      0.89      0.89   192.52    188.00    7.92   False
   23.55    23.69      0.89      0.89   192.49    203.00    8.23   False
   23.60    23.74      0.89      0.89   192.46    187.00    7.90   False
   23.65    23.79      0.90      0.90   192.42    192.00    8.00   False
   23.70    23.84      0.90      0.90   192.39    206.00    8.29   False
   23.75    23.89      0.90      0.90   192.36    201.00    8.19   False
   23.80    23.94      0.90      0.90   192.32    184.00    7.83   False
   23.85    23.99      0.91      0.91   192.29    192.00    8.00   False
   23.90    24.04      0.91      0.91   192.26    205.00    8.27   False
   23.95    24.09      0.91      0.91   192.22    196.00    8.08   False
   24.00    24.14      0.92      0.92   192.19    193.00    8.02   False
   24.05    24.19      0.92      0.92   192.16    194.00    6.96   False
   24.10    24.24      0.92      0.92   192.13    195.00    6.98   False
   24.15    24.29      0.93      0.93   192.09    194.00    6.96   False
   24.20    24.34      0.93      0.93   192.06    201.00    7.09   False
   24.25    24.39      0.94      0.94   192.03    193.00    6.95   False
   24.30    24.44      0.94      0.94   191.99    176.00    6.63   False
   24.35    24.49      0.95      0.95   191.96    187.00    6.84   False
   24.40    24.54      0.96      0.96   191.93    188.00    6.86   False
   24.45    24.59      0.97      0.97   191.89    196.00    7.00   False
   24.50    24.64      0.98      0.98   191.86    192.00    6.93   False
   24.55    24.69      0.99      0.99   191.83    185.00    6.80   False
   24.60    24.74      1.01      1.01   191.79    195.00    6.98   False
   24.65    24.79      1.02      1.02   191.76    198.00    7.04   False
   24.70    24.84      1.04      1.04   191.73    205.00    7.16   False
   24.75    24.89      1.07      1.07   191.69    200.00    7.07   False
   24.80    24.94      1.09      1.09   191.66    208.00    7.21   False
   24.85    24.99      1.13      1.13   191.63    195.00    6.98   False
   24.90    25.04      1.18      1.18   191.59    187.00    6.84   False
   24.95    25.09      1.25      1.25   191.56    193.00    6.95   False
   25.00    25.14      1.35      1.35   191.53    197.00    7.02   False
   25.05    25.19      1.49      1.49   191.50    202.00    7.11   False
   25.10    25.24      1.69      1.69   191.46    193.00    6.95   False
   25.15    25.29      1.97      1.97   191.43    196.00    7.00   False
   25.20    25.34      2.35      2.35   191.40    202.00    7.11   False
   25.25    25.39      2.83      2.83   191.36    201.00    7.09   False
   25.30    25.44      3.43      3.43   191.33    197.00    7.02   False
   25.35    25.49      4.12      4.12   191.30    204.00    7.14   False
   25.40    25.54      4.90      4.90   191.26    208.00    7.21   False
   25.45    25.59      5.75      5.75   191.23    206.00    7.18   False
   25.50    25.64      6.63      6.63   191.20    212.00    7.28   False
   25.55    25.69      7.54      7.54   191.16    207.00    7.19   False
   25.60    25.74      8.44      8.44   191.13    207.00    7.19   False
   25.65    25.79      9.28      9.28   191.10    212.00    7.28   False
   25.70    25.84     10.01     10.01   191.06    216.00    7.35   False
   25.75    25.89     10.54     10.54   191.03    218.00    7.38   False
   25.80    25.94     10.76     10.76   191.00    221.00    7.43   False
   25.85    25.99     10.61     10.61   190.96    218.00    7.38   False
   25.90    26.04     10.08     10.08   190.93    207.00    7.19   False
   25.95    26.09      9.20      9.20   190.90    203.00    7.12   False
   26.00    26.14      8.08      8.08   190.87    204.00    7.14   False
   26.05    26.19      6.83      6.83   190.83    202.00    7.11   False
   26.10    26.24      5.58      5.58   190.80    206.00    7.18   False
   26.15    26.29      4.45      4.45   190.77    202.00    7.11   False
   26.20    26.34      3.49      3.49   190.73    202.00    7.11   False
   26.25    26.39      2.73      2.73   190.70    181.00    6.73   False
   26.30    26.44      2.17      2.17   190.67    193.00    6.95   False
   26.35    26.49      1.77      1.77   190.63    205.00    7.16   False
   26.40    26.54      1.52      1.52   190.60    198.00    7.04   False
   26.45    26.59      1.35      1.35   190.57    196.00    7.00   False
   26.50    26.64      1.26      1.26   190.53    197.00    7.02   False
   26.55    26.69      1.20      1.20   190.50    195.00    6.98   False
   26.60    26.74      1.18      1.18   190.47    201.00    7.09   False
   26.65    26.79      1.16      1.16   190.43    205.00    7.16   False
   26.70    26.84      1.16      1.16   190.40    195.00    6.98   False
   26.75    26.89      1.16      1.16   190.37    196.00    7.00   False
   26.80    26.94      1.17      1.17   190.33    196.00    7.00   False
   26.85    26.99      1.18      1.18   190.30    205.00    7.16   False
   26.90    27.04      1.19      1.19   190.27    198.00    7.04   False
   26.95    27.09      1.20      1.20   190.24    200.00    7.07   False
   27.00    27.14      1.21      1.21   190.20    199.00    7.05   False
   27.05    27.19      1.22      1.22   190.17    180.00    6.71   False
   27.10    27.24      1.23      1.23   190.14    187.00    6.84   False
   27.15    27.29      1.24      1.24   190.10    193.00    6.95   False
   27.20    27.34      1.25      1.25   190.07    197.00    7.02   False
   27.25    27.39      1.27      1.27   190.04    197.00    7.02   False
   27.30    27.44      1.28      1.28   190.00    196.00    7.00   False
   27.35    27.49      1.29      1.29   189.97    194.00    6.96   False
   27.40    27.54      1.31      1.31   189.94    197.00    7.02   False
   27.45    27.59      1.33      1.33   189.90    204.00    7.14   False
   27.50    27.64      1.35      1.35   189.87    201.00    7.09   False
   27.55    27.69      1.37      1.37   189.84    187.00    6.84   False
   27.60    27.74      1.40      1.40   189.80    191.00    6.91   False
   27.65    27.79      1.43      1.43   189.77    205.00    7.16   False
   27.70    27.84      1.47      1.47   189.74    200.00    7.07   False
   27.75    27.89      1.51      1.51   189.70    198.00    7.04   False
   27.80    27.94      1.55      1.55   189.67    200.00    7.07   False
   27.85    27.99      1.61      1.61   189.64    204.00    7.14   False
   27.90    28.04      1.67      1.67   189.61    196.00    7.00   False
   27.95    28.09      1.75      1.75   189.57    195.00    6.98   False
   28.00    28.14      1.84      1.84   189.54    194.00    6.96   False
   28.05    28.19      1.97      1.97   189.51    200.00    7.07   False
   28.10    28.24      2.14      2.14   189.47    198.00    7.04   False
   28.15    28.29      2.39      2.39   189.44    201.00    7.09   False
   28.20    28.34      2.74      2.74   189.41    208.00    7.21   False
   28.25    28.39      3.25      3.25   189.37    205.00    7.16   False
   28.30    28.44      3.97      3.97   189.34    211.00    7.26   False
   28.35    28.49      4.96      4.96   189.31    211.00    7.26   False
   28.40    28.54      6.26      6.26   189.27    220.00    7.42   False
   28.45    28.59      7.89      7.89   189.24    220.00    7.42   False
   28.50    28.64      9.83      9.83   189.21    212.00    7.28   False
   28.55    28.69     12.04     12.04   189.17    208.00    7.21   False
   28.60    28.74     14.44     14.44   189.14    214.00    7.31   False
   28.65    28.79     16.97     16.97   189.11    226.00    7.52   False
   28.70    28.84     19.55     19.55   189.07    235.00    7.66   False
   28.75    28.89     22.08     22.08   189.04    233.00    7.63   False
   28.80    28.94     24.42     24.42   189.01    237.00    7.70   False
   28.85    28.99     26.37     26.37   188.98    242.00    7.78   False
   28.90    29.04     27.68     27.68   188.94    242.00    7.78   False
   28.95    29.09     28.07     28.07   188.91    245.00    7.83   False
   29.00    29.14     27.37     27.37   188.88    239.00    7.73   False
   29.05    29.19     25.56     25.56   188.84    226.00    7.52   False
   29.10    29.24     22.84     22.84   188.81    232.00    7.62   False
   29.15    29.29     19.54     19.54   188.78    238.00    7.71   False
   29.20    29.34     16.05     16.05   188.74    226.00    7.52   False
   29.25    29.39     12.73     12.73   188.71    218.00    7.38   False
   29.30    29.44      9.86      9.86   188.68    218.00    7.38   False
   29.35    29.49      7.57      7.57   188.64    214.00    7.31   False
   29.40    29.54      5.90      5.90   188.61    205.00    7.16   False
   29.45    29.59      4.79      4.79   188.58    200.00    7.07   False
   29.50    29.64      4.12      4.12   188.54    193.00    6.95   False
   29.55    29.69      3.80      3.80   188.51    195.00    6.98   False
   29.60    29.74      3.74      3.74   188.48    196.00    7.00   False
   29.65    29.79      3.90      3.90   188.44    195.00    6.98   False
   29.70    29.84      4.29      4.29   188.41    207.00    7.19   False
   29.75    29.89      4.94      4.94   188.38    215.00    7.33   False
   29.80    29.94      5.94      5.94   188.35    207.00    7.19   False
   29.85    29.99      7.41      7.41   188.31    218.00    7.38   False
   29.90    30.04      9.46      9.46   188.28    218.00    7.38   False
   29.95    30.09     12.22     12.22   188.25    220.00    7.42   False
   30.00    30.14     15.73     15.73   188.21    220.00    7.42   False
   30.05    30.19     20.00     20.00   188.26    229.00    6.77   False
   30.10    30.24     24.95     24.95   188.31    236.00    6.87   False
   30.15    30.29     30.42     30.42   188.36    254.00    7.13   False
   30.20    30.34     36.26     36.26   188.41    264.00    7.27   False
   30.25    30.39     42.24     42.24   188.46    280.00    7.48   False
   30.30    30.44     48.14     48.14   188.51    289.00    7.60   False
   30.35    30.49     53.66     53.66   188.55    289.00    7.60   False
   30.40    30.54     58.34     58.34   188.60    303.00    7.78   False
   30.45    30.59     61.59     61.59   188.65    302.00    7.77   False
   30.50    30.64     62.81     62.81   188.70    297.00    7.71   False
   30.55    30.69     61.55     61.55   188.75    281.00    7.50   False
   30.60    30.74     57.79     57.79   188.80    278.00    7.46   False
   30.65    30.79     51.92     51.92   188.85    280.00    7.48   False
   30.70    30.84     44.70     44.70   188.90    265.00    7.28   False
   30.75    30.89     36.99     36.99   188.95    258.00    7.18   False
   30.80    30.94     29.66     29.66   188.99    243.00    6.97   False
   30.85    30.99     23.38     23.38   189.04    240.00    6.93   False
   30.90    31.04     18.55     18.55   189.09    232.00    6.81   False
   30.95    31.09     15.35     15.35   189.14    231.00    6.80   False
   31.00    31.14     13.82     13.82   189.19    233.00    6.83   False
   31.05    31.19     13.93     13.93   189.24    246.00    7.01   False
   31.10    31.24     15.72     15.72   189.29    248.00    7.04   False
   31.15    31.29     19.31     19.31   189.34    249.00    7.06   False
   31.20    31.34     24.86     24.86   189.38    256.00    7.16   False
   31.25    31.39     32.52     32.52   189.43    272.00    7.38   False
   31.30    31.44     42.35     42.35   189.48    289.00    7.60   False
   31.35    31.49     54.21     54.21   189.53    311.00    7.89   False
   31.40    31.54     67.81     67.81   189.58    340.00    8.25   False
   31.45    31.59     82.69     82.69   189.63    363.00    8.52   False
   31.50    31.64     98.32     98.32   189.68    393.00    8.87   False
   31.55    31.69    114.09    114.09   189.73    440.00    9.38   False
   31.60    31.74    129.24    129.24   189.78    474.00    9.74   False
   31.65    31.79    142.76    142.76   189.82    482.00    9.82   False
   31.70    31.84    153.23    153.23   189.87    492.00    9.92   False
   31.75    31.89    159.01    159.01   189.92    508.00   10.08   False
   31.80    31.94    158.68    158.68   189.97    494.00    9.94   False
   31.85    31.99    151.63    151.63   190.02    475.00    9.75   False
   31.90    32.04    138.39    138.39   190.07    439.00    9.37   False
   31.95    32.09    120.53    120.53   190.12    413.00    9.09   False
   32.00    32.14    100.26    100.26   190.17    368.00    8.58   False
   32.05    32.19     79.86     79.86   190.21    331.00    8.14   False
   32.10    32.24     61.29     61.29   190.26    299.00    7.73   False
   32.15    32.29     45.81     45.81   190.31    286.00    7.56   False
   32.20    32.34     33.97     33.97   190.36    262.00    7.24   False
   32.25    32.39     25.71     25.71   190.41    241.00    6.94   False
   32.30    32.44     20.58     20.58   190.46    238.00    6.90   False
   32.35    32.49     18.06     18.06   190.51    252.00    7.10   False
   32.40    32.54     17.75     17.75   190.56    267.00    7.31   False
   32.45    32.59     19.52     19.52   190.61    276.00    7.43   False
   32.50    32.64     23.52     23.52   190.65    278.00    7.46   False
   32.55    32.69     30.23     30.23   190.70    300.00    7.75   False
   32.60    32.74     40.26     40.26   190.75    325.00    8.06   False
   32.65    32.79     54.28     54.28   190.80    336.00    8.20   False
   32.70    32.84     72.80     72.80   190.85    359.00    8.47   False
   32.75    32.89     95.96     95.96   190.90    405.00    9.00   False
   32.80    32.94    123.49    123.49   190.95    458.00    9.57   False
   32.85    32.99    154.64    154.64   191.00    501.00   10.01   False
   32.90    33.04    188.35    188.35   191.05    564.00   10.62   False
   32.95    33.09    223.32    223.32   191.09    640.00   11.31   False
   33.00    33.14    258.00    258.00   191.14    719.00   11.99   False
   33.05    33.19    290.39    290.39   191.19    783.00   12.51   False
   33.10    33.24    317.82    317.82   191.24    837.00   12.94   False
   33.15    33.29    336.89    336.89   191.29    851.00   13.05   False
   33.20    33.34    344.03    344.03   191.34    866.00   13.16   False
   33.25    33.39    336.74    336.74   191.39    828.00   12.87   False
   33.30    33.44    314.77    314.77   191.44    763.00   12.35   False
   33.35    33.49    280.40    280.40   191.48    697.00   11.81   False
   33.40    33.54    237.85    237.85   191.53    634.00   11.26   False
   33.45    33.59    192.17    192.17   191.58    541.00   10.40   False
   33.50    33.64    148.15    148.15   191.63    465.00    9.64   False
   33.55    33.69    109.41    109.41   191.68    391.00    8.84   False
   33.60    33.74     78.04     78.04   191.73    351.00    8.38   False
   33.65    33.79     54.54     54.54   191.78    301.00    7.76   False
   33.70    33.84     38.30     38.30   191.83    284.00    7.54   False
   33.75    33.89     28.09     28.09   191.88    260.00    7.21   False
   33.80    33.94     22.59     22.59   191.92    248.00    7.04   False
   33.85    33.99     20.67     20.67   191.97    257.00    7.17   False
   33.90    34.04     21.50     21.50   192.02    242.00    6.96   False
   33.95    34.09     24.51     24.51   192.07    246.00    7.01   False
   34.00    34.14     29.27     29.27   192.12    263.00    7.25   False
   34.05    34.19     35.41     35.41   192.17    271.00    7.36   False
   34.10    34.24     42.57     42.57   192.22    281.00    7.50   False
   34.15    34.29     50.36     50.36   192.27    302.00    7.77   False
   34.20    34.34     58.40     58.40   192.31    309.00    7.86   False
   34.25    34.39     66.22     66.22   192.36    335.00    8.19   False
   34.30    34.44     73.27     73.27   192.41    342.00    8.27   False
   34.35    34.49     78.82     78.82   192.46    345.00    8.31   False
   34.40    34.54     82.03     82.03   192.51    356.00    8.44   False
   34.45    34.59     82.17     82.17   192.56    351.00    8.38   False
   34.50    34.64     78.87     78.87   192.61    341.00    8.26   False
   34.55    34.69     72.35     72.35   192.66    334.00    8.17   False
   34.60    34.74     63.40     63.40   192.71    321.00    8.01   False
   34.65    34.79     53.10     53.10   192.75    286.00    7.56   False
   34.70    34.84     42.61     42.61   192.80    268.00    7.32   False
   34.75    34.89     32.92     32.92   192.85    256.00    7.16   False
   34.80    34.94     24.71     24.71   192.90    238.00    6.90   False
   34.85    34.99     18.24     18.24   192.95    229.00    6.77   False
   34.90    35.04     13.50     13.50   193.00    218.00    6.60   False
   34.95    35.09     10.23     10.23   193.05    223.00    6.68   False
   35.00    35.14      8.09      8.09   193.10    216.00    6.57   False
   35.05    35.19      6.75      6.75   193.15    203.00    6.37   False
   35.10    35.24      5.96      5.96   193.19    203.00    6.37   False
   35.15    35.29      5.51      5.51   193.24    194.00    6.23   False
   35.20    35.34      5.28      5.28   193.29    205.00    6.40   False
   35.25    35.39      5.18      5.18   193.34    196.00    6.26   False
   35.30    35.44      5.17      5.17   193.39    193.00    6.21   False
   35.35    35.49      5.22      5.22   193.44    206.00    6.42   False
   35.40    35.54      5.32      5.32   193.49    201.00    6.34   False
   35.45    35.59      5.45      5.45   193.54    201.00    6.34   False
   35.50    35.64      5.62      5.62   193.58    201.00    6.34   False
   35.55    35.69      5.82      5.82   193.63    200.00    6.32   False
   35.60    35.74      6.06      6.06   193.68    194.00    6.23   False
   35.65    35.79      6.36      6.36   193.73    196.00    6.26   False
   35.70    35.84      6.71      6.71   193.78    203.00    6.37   False
   35.75    35.89      7.13      7.13   193.83    195.00    6.25   False
   35.80    35.94      7.64      7.64   193.88    196.00    6.26   False
   35.85    35.99      8.26      8.26   193.93    211.00    6.50   False
   35.90    36.04      9.00      9.00   193.98    216.00    6.57   False
   35.95    36.09      9.92      9.92   194.02    207.00    6.43   False
   36.00    36.14     11.07     11.07   194.07    215.00    6.56   False
   36.05    36.19     12.56     12.56   194.12    221.00    6.65   False
   36.10    36.24     14.58     14.58   194.17    237.00    6.28   False
   36.15    36.29     17.45     17.45   194.22    248.00    6.43   False
   36.20    36.34     21.70     21.70   194.27    261.00    6.60   False
   36.25    36.39     28.07     28.07   194.32    279.00    6.82   False
   36.30    36.44     37.61     37.61   194.37    319.00    7.29   False
   36.35    36.49     51.57     51.57   194.42    337.00    7.49   False
   36.40    36.54     71.28     71.28   194.46    364.00    7.79   False
   36.45    36.59     97.87     97.87   194.51    423.00    8.40   False
   36.50    36.64    132.03    132.03   194.56    489.00    9.03   False
   36.55    36.69    173.72    173.72   194.61    557.00    9.63   False
   36.60    36.74    222.07    222.07   194.66    630.00   10.25   False
   36.65    36.79    275.45    275.45   194.71    729.00   11.02   False
   36.70    36.84    331.59    331.59   194.76    822.00   11.70   False
   36.75    36.89    387.67    387.67   194.81    943.00   12.54   False
   36.80    36.94    440.12    440.12   194.85   1059.00   13.29   False
   36.85    36.99    484.40    484.40   194.90   1196.00   14.12   False
   36.90    37.04    515.01    515.01   194.95   1235.00   14.35   False
   36.95    37.09    526.37    526.37   195.00   1220.00   14.26   False
   37.00    37.14    514.73    514.73   195.05   1209.00   14.20   False
   37.05    37.19    480.00    480.00   195.10   1128.00   13.71   False
   37.10    37.24    426.11    426.11   195.15   1001.00   12.92   False
   37.15    37.29    359.90    359.90   195.20    864.00   12.00   False
   37.20    37.34    289.31    289.31   195.25    729.00   11.02   False
   37.25    37.39    221.64    221.64   195.29    601.00   10.01   False
   37.30    37.44    162.30    162.30   195.34    496.00    9.09   False
   37.35    37.49    114.22    114.22   195.39    418.00    8.35   False
   37.40    37.54     77.92     77.92   195.44    355.00    7.69   False
   37.45    37.59     52.18     52.18   195.49    313.00    7.22   False
   37.50    37.64     34.89     34.89   195.54    263.00    6.62   False
   37.55    37.69     23.77     23.77   195.59    246.00    6.40   False
   37.60    37.74     16.86     16.86   195.64    226.00    6.14   False
   37.65    37.79     12.67     12.67   195.68    214.00    5.97   False
   37.70    37.84     10.17     10.17   195.73    222.00    6.08   False
   37.75    37.89      8.69      8.69   195.78    222.00    6.08   False
   37.80    37.94      7.82      7.82   195.83    211.00    5.93   False
   37.85    37.99      7.31      7.31   195.88    211.00    5.93   False
   37.90    38.04      6.99      6.99   195.93    202.00    5.80   False
   37.95    38.09      6.79      6.79   195.98    198.00    5.74   False
   38.00    38.14      6.64      6.64   196.03    192.00    5.66   False
   38.05    38.19      6.52      6.52   196.08    193.00    5.67   False
   38.10    38.24      6.40      6.40   196.12    196.00    5.72   False
   38.15    38.29      6.29      6.29   196.17    201.00    5.79   False
   38.20    38.34      6.19      6.19   196.22    203.00    5.82   False
   38.25    38.39      6.09      6.09   196.27    203.00    5.82   False
   38.30    38.44      5.99      5.99   196.32    201.00    5.79   False
   38.35    38.49      5.91      5.91   196.37    198.00    5.74   False
   38.40    38.54      5.84      5.84   196.42    196.00    5.72   False
   38.45    38.59      5.79      5.79   196.47    206.00    5.86   False
   38.50    38.64      5.75      5.75   196.52    210.00    5.92   False
   38.55    38.69      5.73      5.73   196.56    197.00    5.73   False
   38.60    38.74      5.73      5.73   196.61    204.00    5.83   False
   38.65    38.79      5.75      5.75   196.66    200.00    5.77   False
   38.70    38.84      5.80      5.80   196.71    205.00    5.85   False
   38.75    38.89      5.87      5.87   196.76    196.00    5.72   False
   38.80    38.94      5.96      5.96   196.81    195.00    5.70   False
   38.85    38.99      6.09      6.09   196.86    205.00    5.85   False
   38.90    39.04      6.25      6.25   196.91    204.00    5.83   False
   38.95    39.09      6.44      6.44   196.95    200.00    5.77   False
   39.00    39.14      6.69      6.69   197.00    203.00    5.82   False
   39.05    39.19      6.98      6.98   197.05    208.00    5.89   False
   39.10    39.24      7.34      7.34   197.10    207.00    5.87   False
   39.15    39.29      7.77      7.77   197.15    202.00    5.80   False
   39.20    39.34      8.29      8.29   197.20    203.00    5.82   False
   39.25    39.39      8.92      8.92   197.25    198.00    5.74   False
   39.30    39.44      9.68      9.68   197.30    204.00    5.83   False
   39.35    39.49     10.62     10.62   197.35    210.00    5.92   False
   39.40    39.54     11.78     11.78   197.39    216.00    6.00   False
   39.45    39.59     13.29     13.29   197.44    210.00    5.92   False
   39.50    39.64     15.33     15.33   197.49    229.00    6.18   False
   39.55    39.69     18.22     18.22   197.54    239.00    6.31   False
   39.60    39.74     22.51     22.51   197.59    247.00    6.42   False
   39.65    39.79     28.98     28.98   197.64    278.00    6.81   False
   39.70    39.84     38.72     38.72   197.69    302.00    7.09   False
   39.75    39.89     53.06     53.06   197.74    324.00    7.35   False
   39.80    39.94     73.46     73.46   197.78    371.00    7.86   False
   39.85    39.99    101.18    101.18   197.83    420.00    8.37   False
   39.90    40.04    136.99    136.99   197.88    465.00    8.80   False
   39.95    40.09    180.91    180.91   197.93    538.00    9.47   False
   40.00    40.14    231.98    231.98   197.98    630.00   10.25   False
   40.05    40.19    288.32    288.32   198.03    739.00   11.10   False
   40.10    40.24    347.24    347.24   198.08    851.00   11.91   False
   40.15    40.29    405.23    405.23   198.13    976.00   12.75   False
   40.20    40.34    457.96    457.96   198.18   1076.00   13.39   False
   40.25    40.39    500.08    500.08   198.22   1161.00   13.91   False
   40.30    40.44    525.63    525.63   198.27   1222.00   14.27   False
   40.35    40.49    529.36    529.36   198.32   1227.00   14.30   False
   40.40    40.54    508.84    508.84   198.37   1187.00   14.07   False
   40.45    40.59    465.90    465.90   198.42   1096.00   13.52   False
   40.50    40.64    406.28    406.28   198.47    964.00   12.68   False
   40.55    40.69    337.89    337.89   198.52    833.00   11.78   False
   40.60    40.74    268.93    268.93   198.57    708.00   10.86   False
   40.65    40.79    206.37    206.37   198.62    587.00    9.89   False
   40.70    40.84    155.00    155.00   198.66    512.00    9.24   False
   40.75    40.89    117.21    117.21   198.71    436.00    8.52   False
   40.80    40.94     93.36     93.36   198.76    391.00    8.07   False
   40.85    40.99     82.50     82.50   198.81    384.00    8.00   False
   40.90    41.04     83.13     83.13   198.86    370.00    7.85   False
   40.95    41.09     93.57     93.57   198.91    391.00    8.07   False
   41.00    41.14    112.21    112.21   198.96    419.00    8.36   False
   41.05    41.19    137.42    137.42   199.01    448.00    8.64   False
   41.10    41.24    167.47    167.47   199.05    490.00    9.04   False
   41.15    41.29    200.39    200.39   199.10    567.00    9.72   False
   41.20    41.34    233.90    233.90   199.15    626.00   10.21   False
   41.25    41.39    265.26    265.26   199.20    687.00   10.70   False
   41.30    41.44    291.26    291.26   199.25    735.00   11.07   False
   41.35    41.49    308.48    308.48   199.30    780.00   11.40   False
   41.40    41.54    314.05    314.05   199.35    782.00   11.42   False
   41.45    41.59    306.55    306.55   199.40    745.00   11.14   False
   41.50    41.64    286.50    286.50   199.45    721.00   10.96   False
   41.55    41.69    256.22    256.22   199.49    662.00   10.50   False
   41.60    41.74    219.27    219.27   199.54    595.00    9.96   False
   41.65    41.79    179.73    179.73   199.59    527.00    9.37   False
   41.70    41.84    141.36    141.36   199.64    446.00    8.62   False
   41.75    41.89    107.04    107.04   199.69    393.00    8.09   False
   41.80    41.94     78.41     78.41   199.74    335.00    7.47   False
   41.85    41.99     55.97     55.97   199.79    301.00    7.08   False
   41.90    42.04     39.33     39.33   199.84    276.00    6.78   False
   41.95    42.09     27.59     27.59   199.88    251.00    5.99   False
   42.00    42.14     19.67     19.67   199.93    242.00    5.88   False
   42.05    42.19     14.51     14.51   199.98    229.00    5.72   False
   42.10    42.24     11.27     11.27   200.03    209.00    5.46   False
   42.15    42.29      9.30      9.30   200.08    215.00    5.54   False
   42.20    42.34      8.16      8.16   200.13    218.00    5.58   False
   42.25    42.39      7.53      7.53   200.18    214.00    5.53   False
   42.30    42.44      7.25      7.25   200.23    209.00    5.46   False
   42.35    42.49      7.18      7.18   200.28    208.00    5.45   False
   42.40    42.54      7.24      7.24   200.32    212.00    5.50   False
   42.45    42.59      7.37      7.37   200.37    210.00    5.48   False
   42.50    42.64      7.54      7.54   200.42    209.00    5.46   False
   42.55    42.69      7.70      7.70   200.47    210.00    5.48   False
   42.60    42.74      7.80      7.80   200.52    205.00    5.41   False
   42.65    42.79      7.83      7.83   200.57    209.00    5.46   False
   42.70    42.84      7.72      7.72   200.62    211.00    5.49   False
   42.75    42.89      7.48      7.48   200.67    211.00    5.49   False
   42.80    42.94      7.10      7.10   200.72    216.00    5.55   False
   42.85    42.99      6.62      6.62   200.76    205.00    5.41   False
   42.90    43.04      6.08      6.08   200.81    204.00    5.40   False
   42.95    43.09      5.53      5.53   200.86    202.00    5.37   False
   43.00    43.14      5.02      5.02   200.91    201.00    5.36   False
   43.05    43.19      4.58      4.58   200.96    200.00    5.35   False
   43.10    43.24      4.22      4.22   201.01    207.00    5.44   False
   43.15    43.29      3.94      3.94   201.06    205.00    5.41   False
   43.20    43.34      3.72      3.72   201.11    202.00    5.37   False
   43.25    43.39      3.56      3.56   201.15    209.00    5.46   False
   43.30    43.44      3.45      3.45   201.20    202.00    5.37   False
   43.35    43.49      3.36      3.36   201.25    203.00    5.39   False
   43.40    43.54      3.29      3.29   201.30    206.00    5.42   False
   43.45    43.59      3.23      3.23   201.35    206.00    5.42   False
   43.50    43.64      3.19      3.19   201.40    200.00    5.35   False
   43.55    43.69      3.15      3.15   201.45    194.00    5.26   False
   43.60    43.74      3.12      3.12   201.50    199.00    5.33   False
   43.65    43.79      3.10      3.10   201.55    204.00    5.40   False
   43.70    43.84      3.08      3.08   201.59    205.00    5.41   False
   43.75    43.89      3.07      3.07   201.64    210.00    5.48   False
   43.80    43.94      3.06      3.06   201.69    207.00    5.44   False
   43.85    43.99      3.05      3.05   201.74    205.00    5.41   False
   43.90    44.04      3.05      3.05   201.79    210.00    5.48   False
   43.95    44.09      3.05      3.05   201.84    204.00    5.40   False
   44.00    44.14      3.05      3.05   201.89    203.00    5.39   False
   44.05    44.19      3.06      3.06   201.94    202.00    5.37   False
   44.10    44.24      3.07      3.07   201.99    205.00    5.41   False
   44.15    44.29      3.09      3.09   202.03    201.00    5.36   False
   44.20    44.34      3.11      3.11   202.08    201.00    5.36   False
   44.25    44.39      3.13      3.13   202.13    207.00    5.44   False
   44.30    44.44      3.16      3.16   202.18    197.00    5.30   False
   44.35    44.49      3.19      3.19   202.23    198.00    5.32   False
   44.40    44.54      3.23      3.23   202.28    203.00    5.39   False
   44.45    44.59      3.27      3.27   202.33    209.00    5.46   False
   44.50    44.64      3.32      3.32   202.38    209.00    5.46   False
   44.55    44.69      3.37      3.37   202.42    208.00    5.45   False
   44.60    44.74      3.43      3.43   202.47    204.00    5.40   False
   44.65    44.79      3.50      3.50   202.52    209.00    5.46   False
   44.70    44.84      3.57      3.57   202.57    199.00    5.33   False
   44.75    44.89      3.64      3.64   202.62    204.00    5.40   False
   44.80    44.94      3.73      3.73   202.67    206.00    5.42   False
   44.85    44.99      3.82      3.82   202.72    201.00    5.36   False
   44.90    45.04      3.93      3.93   202.77    205.00    5.41   False
   44.95    45.09      4.04      4.04   202.82    202.00    5.37   False
   45.00    45.14      4.17      4.17   202.86    204.00    5.40   False
   45.05    45.19      4.31      4.31   202.91    198.00    5.32   False
   45.10    45.24      4.47      4.47   202.96    198.00    5.32   False
   45.15    45.29      4.65      4.65   203.01    213.00    5.52   False
   45.20    45.34      4.85      4.85   203.06    210.00    5.48   False
   45.25    45.39      5.07      5.07   203.11    212.00    5.50   False
   45.30    45.44      5.34      5.34   203.16    214.00    5.53   False
   45.35    45.49      5.64      5.64   203.21    215.00    5.54   False
   45.40    45.54      5.99      5.99   203.25    217.00    5.57   False
   45.45    45.59      6.41      6.41   203.30    210.00    5.48   False
   45.50    45.64      6.90      6.90   203.35    214.00    5.53   False
   45.55    45.69      7.48      7.48   203.40    215.00    5.54   False
   45.60    45.74      8.17      8.17   203.45    215.00    5.54   False
   45.65    45.79      9.03      9.03   203.50    215.00    5.54   False
   45.70    45.84     10.09     10.09   203.55    217.00    5.57   False
   45.75    45.89     11.50     11.50   203.60    222.00    5.63   False
   45.80    45.94     13.43     13.43   203.65    231.00    5.74   False
   45.85    45.99     16.23     16.23   203.69    247.00    5.94   False
   45.90    46.04     20.44     20.44   203.74    252.00    6.00   False
   45.95    46.09     26.85     26.85   203.79    273.00    6.25   False
   46.00    46.14     36.55     36.55   203.84    304.00    6.59   False
   46.05    46.19     50.81     50.81   203.89    332.00    6.89   False
   46.10    46.24     70.96     70.96   203.94    366.00    7.23   False
   46.15    46.29     98.10     98.10   203.99    408.00    7.63   False
   46.20    46.34    132.78    132.78   204.04    463.00    8.13   False
   46.25    46.39    174.73    174.73   204.09    532.00    8.72   False
   46.30    46.44    222.66    222.66   204.13    619.00    9.40   False
   46.35    46.49    274.22    274.22   204.18    734.00   10.24   False
   46.40    46.54    326.04    326.04   204.23    828.00   10.88   False
   46.45    46.59    373.84    373.84   204.28    944.00   11.61   False
   46.50    46.64    412.49    412.49   204.33   1003.00   11.97   False
   46.55    46.69    436.63    436.63   204.38   1055.00   12.28   False
   46.60    46.74    441.80    441.80   204.43   1070.00   12.36   False
   46.65    46.79    426.18    426.18   204.48   1018.00   12.06   False
   46.70    46.84    391.44    391.44   204.52    944.00   11.61   False
   46.75    46.89    342.34    342.34   204.57    833.00   10.91   False
   46.80    46.94    285.40    285.40   204.62    725.00   10.18   False
   46.85    46.99    227.29    227.29   204.67    633.00    9.51   False
   46.90    47.04    173.55    173.55   204.72    507.00    8.51   False
   46.95    47.09    127.85    127.85   204.77    445.00    7.97   False
   47.00    47.14     91.80     91.80   204.82    379.00    7.36   False
   47.05    47.19     65.38     65.38   204.87    347.00    7.04   False
   47.10    47.24     47.49     47.49   204.92    316.00    6.72   False
   47.15    47.29     36.67     36.67   204.96    282.00    6.35   False
   47.20    47.34     31.53     31.53   205.01    267.00    6.18   False
   47.25    47.39     30.97     30.97   205.06    269.00    6.20   False
   47.30    47.44     34.27     34.27   205.11    281.00    6.34   False
   47.35    47.49     40.87     40.87   205.16    288.00    6.41   False
   47.40    47.54     50.31     50.31   205.21    300.00    6.55   False
   47.45    47.59     61.98     61.98   205.26    327.00    6.83   False
   47.50    47.64     75.15     75.15   205.31    346.00    7.03   False
   47.55    47.69     88.82     88.82   205.35    380.00    7.37   False
   47.60    47.74    101.81    101.81   205.40    400.00    7.56   False
   47.65    47.79    112.74    112.74   205.45    430.00    7.84   False
   47.70    47.84    120.08    120.08   205.50    453.00    8.04   False
   47.75    47.89    122.47    122.47   205.55    459.00    8.10   False
   47.80    47.94    119.10    119.10   205.60    451.00    8.03   False
   47.85    47.99    110.24    110.24   205.65    427.00    7.81   False
   47.90    48.04     97.19     97.19   205.70    402.00    7.58   False
   47.95    48.09     81.80     81.80   205.75    375.00    7.32   False
   48.00    48.14     65.98     65.98   205.79    344.00    7.01   False
   48.05    48.19     51.34     51.34   205.84    309.00    6.64   False
   48.10    48.24     38.91     38.91   205.89    277.00    6.29   False
   48.15    48.29     29.14     29.14   205.94    265.00    5.76   False
   48.20    48.34     21.97     21.97   205.99    246.00    5.55   False
   48.25    48.39     17.04     17.04   206.04    246.00    5.55   False
   48.30    48.44     13.85     13.85   206.09    230.00    5.36   False
   48.35    48.49     11.92     11.92   206.14    223.00    5.28   False
   48.40    48.54     10.85     10.85   206.19    227.00    5.33   False
   48.45    48.59     10.37     10.37   206.23    225.00    5.30   False
   48.50    48.64     10.27     10.27   206.28    217.00    5.21   False
   48.55    48.69     10.47     10.47   206.33    217.00    5.21   False
   48.60    48.74     10.88     10.88   206.38    223.00    5.28   False
   48.65    48.79     11.52     11.52   206.43    223.00    5.28   False
   48.70    48.84     12.41     12.41   206.48    220.00    5.24   False
   48.75    48.89     13.69     13.69   206.53    223.00    5.28   False
   48.80    48.94     15.55     15.55   206.58    226.00    5.32   False
   48.85    48.99     18.38     18.38   206.62    248.00    5.57   False
   48.90    49.04     22.76     22.76   206.67    258.00    5.68   False
   48.95    49.09     29.49     29.49   206.72    274.00    5.85   False
   49.00    49.14     39.61     39.61   206.77    297.00    6.09   False
   49.05    49.19     54.23     54.23   206.82    324.00    6.36   False
   49.10    49.24     74.34     74.34   206.87    355.00    6.66   False
   49.15    49.29    100.50    100.50   206.92    393.00    7.01   False
   49.20    49.34    132.59    132.59   206.97    458.00    7.57   False
   49.25    49.39    169.62    169.62   207.02    528.00    8.12   False
   49.30    49.44    209.62    209.62   207.06    589.00    8.58   False
   49.35    49.49    249.78    249.78   207.11    688.00    9.27   False
   49.40    49.54    286.50    286.50   207.16    781.00    9.88   False
   49.45    49.59    315.56    315.56   207.21    840.00   10.25   False
   49.50    49.64    332.59    332.59   207.26    876.00   10.46   False
   49.55    49.69    334.05    334.05   207.31    874.00   10.45   False
   49.60    49.74    318.84    318.84   207.36    832.00   10.20   False
   49.65    49.79    289.12    289.12   207.41    765.00    9.78   False
   49.70    49.84    249.68    249.68   207.45    682.00    9.23   False
   49.75    49.89    206.35    206.35   207.50    613.00    8.75   False
   49.80    49.94    164.64    164.64   207.55    524.00    8.09   False
   49.85    49.99    128.93    128.93   207.60    455.00    7.54   False
   49.90    50.04    102.03    102.03   207.65    408.00    7.14   False
   49.95    50.09     85.25     85.25   207.70    384.00    6.93   False
   50.00    50.14     78.74     78.74   207.75    366.00    6.76   False
   50.05    50.19     81.80     81.80   207.73    375.00    6.85   False
   50.10    50.24     93.27     93.27   207.72    392.00    7.00   False
   50.15    50.29    111.58    111.58   207.70    426.00    7.30   False
   50.20    50.34    134.83    134.83   207.69    470.00    7.66   False
   50.25    50.39    160.73    160.73   207.67    519.00    8.05   False
   50.30    50.44    186.66    186.66   207.66    588.00    8.57   False
   50.35    50.49    209.63    209.63   207.64    639.00    8.94   False
   50.40    50.54    226.47    226.47   207.63    681.00    9.23   False
   50.45    50.59    234.16    234.16   207.61    704.00    9.38   False
   50.50    50.64    230.76    230.76   207.60    693.00    9.31   False
   50.55    50.69    216.36    216.36   207.58    650.00    9.01   False
   50.60    50.74    193.26    193.26   207.57    600.00    8.66   False
   50.65    50.79    165.13    165.13   207.55    540.00    8.22   False
   50.70    50.84    135.89    135.89   207.53    478.00    7.73   False
   50.75    50.89    108.93    108.93   207.52    412.00    7.18   False
   50.80    50.94     86.72     86.72   207.50    376.00    6.86   False
   50.85    50.99     70.73     70.73   207.49    345.00    6.57   False
   50.90    51.04     61.70     61.70   207.47    330.00    6.42   False
   50.95    51.09     60.04     60.04   207.46    337.00    6.49   False
   51.00    51.14     66.24     66.24   207.44    350.00    6.61   False
   51.05    51.19     81.01     81.01   207.43    383.00    6.92   False
   51.10    51.24    105.18    105.18   207.41    426.00    7.30   False
   51.15    51.29    139.30    139.30   207.40    493.00    7.85   False
   51.20    51.34    183.22    183.22   207.38    571.00    8.45   False
   51.25    51.39    235.61    235.61   207.37    676.00    9.19   False
   51.30    51.44    293.78    293.78   207.35    803.00   10.02   False
   51.35    51.49    353.65    353.65   207.34    920.00   10.72   False
   51.40    51.54    409.95    409.95   207.32   1071.00   11.57   False
   51.45    51.59    456.50    456.50   207.31   1183.00   12.16   False
   51.50    51.64    486.81    486.81   207.29   1247.00   12.48   False
   51.55    51.69    495.56    495.56   207.28   1255.00   12.53   False
   51.60    51.74    480.97    480.97   207.26   1251.00   12.51   False
   51.65    51.79    446.54    446.54   207.25   1183.00   12.16   False
   51.70    51.84    400.42    400.42   207.23   1068.00   11.55   False
   51.75    51.89    353.11    353.11   207.22    945.00   10.87   False
   51.80    51.94    315.14    315.14   207.20    861.00   10.37   False
   51.85    51.99    295.35    295.35   207.19    811.00   10.07   False
   51.90    52.04    299.71    299.71   207.17    813.00   10.08   False
   51.95    52.09    330.57    330.57   207.15    872.00   10.44   False
   52.00    52.14    386.48    386.48   207.14    969.00   11.01   False
   52.05    52.19    462.49    462.49   207.12   1120.00   11.83   False
   52.10    52.24    550.79    550.79   207.11   1309.00   12.79   False
   52.15    52.29    641.38    641.38   207.09   1527.00   13.82   False
   52.20    52.34    722.69    722.69   207.08   1706.00   14.60   False
   52.25    52.39    782.36    782.36   207.06   1856.00   15.23   False
   52.30    52.44    808.85    808.85   207.05   1888.00   15.36   False
   52.35    52.49    794.74    794.74   207.03   1837.00   15.15   False
   52.40    52.54    740.40    740.40   207.02   1713.00   14.63   False
   52.45    52.59    654.54    654.54   207.00   1500.00   13.69   False
   52.50    52.64    550.93    550.93   206.99   1289.00   12.69   False
   52.55    52.69    444.16    444.16   206.97   1103.00   11.74   False
   52.60    52.74    346.55    346.55   206.96    904.00   10.63   False
   52.65    52.79    266.67    266.67   206.94    749.00    9.68   False
   52.70    52.84    208.84    208.84   206.93    627.00    8.85   False
   52.75    52.89    173.66    173.66   206.91    568.00    8.43   False
   52.80    52.94    159.07    159.07   206.90    551.00    8.30   False
   52.85    52.99    161.47    161.47   206.88    560.00    8.37   False
   52.90    53.04    176.55    176.55   206.87    586.00    8.56   False
   52.95    53.09    199.87    199.87   206.85    634.00    8.90   False
   53.00    53.14    226.94    226.94   206.84    691.00    9.29   False
   53.05    53.19    253.36    253.36   206.82    751.00    9.69   False
   53.10    53.24    274.78    274.78   206.80    799.00    9.99   False
   53.15    53.29    287.35    287.35   206.79    792.00    9.95   False
   53.20    53.34    288.57    288.57   206.77    820.00   10.12   False
   53.25    53.39    278.27    278.27   206.76    774.00    9.84   False
   53.30    53.44    258.60    258.60   206.74    736.00    9.59   False
   53.35    53.49    233.00    233.00   206.73    680.00    9.22   False
   53.40    53.54    204.88    204.88   206.71    627.00    8.85   False
   53.45    53.59    176.80    176.80   206.70    562.00    8.38   False
   53.50    53.64    150.27    150.27   206.68    514.00    8.02   False
   53.55    53.69    125.98    125.98   206.67    459.00    7.57   False
   53.60    53.74    104.28    104.28   206.65    424.00    7.28   False
   53.65    53.79     85.37     85.37   206.64    362.00    6.73   False
   53.70    53.84     69.39     69.39   206.62    333.00    6.45   False
   53.75    53.89     56.39     56.39   206.61    318.00    6.30   False
   53.80    53.94     46.30     46.30   206.59    300.00    6.12   False
   53.85    53.99     38.94     38.94   206.58    287.00    5.99   False
   53.90    54.04     33.99     33.99   206.56    265.00    5.76   False
   53.95    54.09     31.07     31.07   206.55    266.00    5.77   False
   54.00    54.14     29.80     29.80   206.53    262.00    5.72   False
   54.05    54.19     29.84     29.84   206.52    263.00    5.41   False
   54.10    54.24     31.03     31.03   206.50    255.00    5.32   False
   54.15    54.29     33.38     33.38   206.49    270.00    5.48   False
   54.20    54.34     37.15     37.15   206.47    278.00    5.56   False
   54.25    54.39     43.02     43.02   206.45    289.00    5.67   False
   54.30    54.44     52.24     52.24   206.44    317.00    5.93   False
   54.35    54.49     66.81     66.81   206.42    343.00    6.17   False
   54.40    54.54     89.66     89.66   206.41    400.00    6.67   False
   54.45    54.59    124.54    124.54   206.39    468.00    7.21   False
   54.50    54.64    175.63    175.63   206.38    561.00    7.90   False
   54.55    54.69    246.69    246.69   206.36    695.00    8.79   False
   54.60    54.74    339.87    339.87   206.35    873.00    9.85   False
   54.65    54.79    454.54    454.54   206.33   1100.00   11.06   False
   54.70    54.84    586.36    586.36   206.32   1372.00   12.35   False
   54.75    54.89    726.97    726.97   206.30   1660.00   13.58   False
   54.80    54.94    864.30    864.30   206.29   1954.00   14.73   False
   54.85    54.99    983.33    983.33   206.27   2224.00   15.72   False
   54.90    55.04   1067.52   1067.52   206.26   2400.00   16.33   False
   54.95    55.09   1101.64   1101.64   206.24   2459.00   16.53   False
   55.00    55.14   1076.89   1076.89   206.23   2435.00   16.45   False
   55.05    55.19    995.75    995.75   206.21   2245.00   15.79   False
   55.10    55.24    872.01    872.01   206.20   1986.00   14.85   False
   55.15    55.29    725.61    725.61   206.18   1671.00   13.63   False
   55.20    55.34    576.42    576.42   206.17   1358.00   12.28   False
   55.25    55.39    440.29    440.29   206.15   1086.00   10.98   False
   55.30    55.44    327.40    327.40   206.14    868.00    9.82   False
   55.35    55.49    242.33    242.33   206.12    682.00    8.71   False
   55.40    55.54    185.40    185.40   206.10    578.00    8.01   False
   55.45    55.59    154.65    154.65   206.09    521.00    7.61   False
   55.50    55.64    147.65    147.65   206.07    512.00    7.54   False
   55.55    55.69    162.60    162.60   206.06    537.00    7.72   False
   55.60    55.74    198.52    198.52   206.04    600.00    8.16   False
   55.65    55.79    254.77    254.77   206.03    704.00    8.84   False
   55.70    55.84    330.19    330.19   206.01    855.00    9.75   False
   55.75    55.89    422.13    422.13   206.00   1032.00   10.71   False
   55.80    55.94    525.67    525.67   205.98   1232.00   11.70   False
   55.85    55.99    633.23    633.23   205.97   1466.00   12.76   False
   55.90    56.04    734.72    734.72   205.95   1693.00   13.72   False
   55.95    56.09    818.56    818.56   205.94   1866.00   14.40   False
   56.00    56.14    873.58    873.58   205.92   1966.00   14.78   False
   56.05    56.19    891.59    891.59   205.91   2024.00   15.00   False
   56.10    56.24    869.18    869.18   205.89   2016.00   14.97   False
   56.15    56.29    808.36    808.36   205.88   1846.00   14.32   False
   56.20    56.34    716.55    716.55   205.86   1667.00   13.61   False
   56.25    56.39    605.60    605.60   205.85   1429.00   12.60   False
   56.30    56.44    488.95    488.95   205.83   1179.00   11.45   False
   56.35    56.49    378.28    378.28   205.82    950.00   10.27   False
   56.40    56.54    281.65    281.65   205.80    763.00    9.21   False
   56.45    56.59    203.05    203.05   205.79    599.00    8.16   False
   56.50    56.64    143.05    143.05   205.77    484.00    7.33   False
   56.55    56.69     99.79     99.79   205.75    404.00    6.70   False
   56.60    56.74     70.12     70.12   205.74    351.00    6.25   False
   56.65    56.79     50.64     50.64   205.72    304.00    5.81   False
   56.70    56.84     38.29     38.29   205.71    284.00    5.62   False
   56.75    56.89     30.69     30.69   205.69    273.00    5.51   False
   56.80    56.94     26.11     26.11   205.68    259.00    5.36   False
   56.85    56.99     23.40     23.40   205.66    251.00    5.28   False
   56.90    57.04     21.85     21.85   205.65    251.00    5.28   False
   56.95    57.09     21.02     21.02   205.63    252.00    5.29   False
   57.00    57.14     20.69     20.69   205.62    245.00    5.22   False
   57.05    57.19     20.81     20.81   205.60    259.00    5.36   False
   57.10    57.24     21.43     21.43   205.59    250.00    5.27   False
   57.15    57.29     22.81     22.81   205.57    253.00    5.30   False
   57.20    57.34     25.38     25.38   205.56    256.00    5.33   False
   57.25    57.39     29.86     29.86   205.54    264.00    5.42   False
   57.30    57.44     37.31     37.31   205.53    285.00    5.63   False
   57.35    57.49     49.02     49.02   205.51    301.00    5.78   False
   57.40    57.54     66.44     66.44   205.50    346.00    6.20   False
   57.45    57.59     90.75     90.75   205.48    390.00    6.58   False
   57.50    57.64    122.51    122.51   205.47    458.00    7.13   False
   57.55    57.69    161.17    161.17   205.45    528.00    7.66   False
   57.60    57.74    204.82    204.82   205.44    624.00    8.33   False
   57.65    57.79    250.08    250.08   205.42    733.00    9.02   False
   57.70    57.84    292.36    292.36   205.41    829.00    9.60   False
   57.75    57.89    326.19    326.19   205.39    916.00   10.09   False
   57.80    57.94    345.95    345.95   205.37    988.00   10.48   False
   57.85    57.99    347.26    347.26   205.36    994.00   10.51   False
   57.90    58.04    328.93    328.93   205.34    929.00   10.16   False
   57.95    58.09    294.03    294.03   205.33    843.00    9.68   False
   58.00    58.14    248.70    248.70   205.31    742.00    9.08   False
   58.05    58.19    199.80    199.80   205.30    638.00    8.42   False
   58.10    58.24    153.14    153.14   205.28    527.00    7.65   False
   58.15    58.29    112.62    112.62   205.27    434.00    6.94   False
   58.20    58.34     80.11     80.11   205.25    377.00    6.47   False
   58.25    58.39     55.77     55.77   205.24    320.00    5.96   False
   58.30    58.44     38.59     38.59   205.22    282.00    5.60   False
   58.35    58.49     27.04     27.04   205.21    273.00    5.51   False
   58.40    58.54     19.59     19.59   205.19    256.00    5.33   False
   58.45    58.59     14.91     14.91   205.18    243.00    5.20   False
   58.50    58.64     12.03     12.03   205.16    240.00    5.16   False
   58.55    58.69     10.25     10.25   205.15    240.00    5.16   False
   58.60    58.74      9.13      9.13   205.13    230.00    5.06   False
   58.65    58.79      8.40      8.40   205.12    220.00    4.94   False
   58.70    58.84      7.87      7.87   205.10    230.00    5.06   False
   58.75    58.89      7.46      7.46   205.09    227.00    5.02   False
   58.80    58.94      7.11      7.11   205.07    224.00    4.99   False
   58.85    58.99      6.81      6.81   205.06    219.00    4.93   False
   58.90    59.04      6.54      6.54   205.04    227.00    5.02   False
   58.95    59.09      6.29      6.29   205.02    227.00    5.02   False
   59.00    59.14      6.07      6.07   205.01    224.00    4.99   False
   59.05    59.19      5.87      5.87   204.99    222.00    4.97   False
   59.10    59.24      5.70      5.70   204.98    223.00    4.98   False
   59.15    59.29      5.56      5.56   204.96    217.00    4.91   False
   59.20    59.34      5.44      5.44   204.95    213.00    4.86   False
   59.25    59.39      5.37      5.37   204.93    216.00    4.90   False
   59.30    59.44      5.33      5.33   204.92    219.00    4.93   False
   59.35    59.49      5.34      5.34   204.90    219.00    4.93   False
   59.40    59.54      5.43      5.43   204.89    218.00    4.92   False
   59.45    59.59      5.63      5.63   204.87    220.00    4.94   False
   59.50    59.64      6.02      6.02   204.86    220.00    4.94   False
   59.55    59.69      6.69      6.69   204.84    220.00    4.94   False
   59.60    59.74      7.80      7.80   204.83    223.00    4.98   False
   59.65    59.79      9.57      9.57   204.81    233.00    5.09   False
   59.70    59.84     12.23     12.23   204.80    237.00    5.13   False
   59.75    59.89     16.00     16.00   204.78    249.00    5.26   False
   59.80    59.94     21.01     21.01   204.77    258.00    5.35   False
   59.85    59.99     27.29     27.29   204.75    261.00    5.39   False
   59.90    60.04     34.65     34.65   204.74    283.00    5.61   False
   59.95    60.09     42.67     42.67   204.72    304.00    5.81   False
   60.00    60.14     50.75     50.75   204.71    324.00    5.69   False
   60.05    60.19     58.07     58.07   204.69    347.00    5.89   False
   60.10    60.24     63.74     63.74   204.67    353.00    5.94   False
   60.15    60.29     66.96     66.96   204.66    359.00    5.99   False
   60.20    60.34     67.35     67.35   204.64    363.00    6.02   False
   60.25    60.39     65.05     65.05   204.63    352.00    5.93   False
   60.30    60.44     60.54     60.54   204.61    341.00    5.84   False
   60.35    60.49     54.38     54.38   204.60    330.00    5.74   False
   60.40    60.54     47.12     47.12   204.58    308.00    5.55   False
   60.45    60.59     39.39     39.39   204.57    291.00    5.39   False
   60.50    60.64     31.83     31.83   204.55    271.00    5.21   False
   60.55    60.69     24.97     24.97   204.54    254.00    5.04   False
   60.60    60.74     19.15     19.15   204.52    245.00    4.95   False
   60.65    60.79     14.52     14.52   204.51    245.00    4.95   False
   60.70    60.84     11.05     11.05   204.49    239.00    4.89   False
   60.75    60.89      8.60      8.60   204.48    228.00    4.77   False
   60.80    60.94      6.99      6.99   204.46    217.00    4.66   False
   60.85    60.99      5.99      5.99   204.45    217.00    4.66   False
   60.90    61.04      5.40      5.40   204.43    218.00    4.67   False
   60.95    61.09      5.05      5.05   204.42    223.00    4.72   False
   61.00    61.14      4.80      4.80   204.40    207.00    4.55   False
   61.05    61.19      4.58      4.58   204.39    218.00    4.67   False
   61.10    61.24      4.33      4.33   204.37    222.00    4.71   False
   61.15    61.29      4.05      4.05   204.36    215.00    4.64   False
   61.20    61.34      3.75      3.75   204.34    210.00    4.58   False
   61.25    61.39      3.45      3.45   204.32    216.00    4.65   False
   61.30    61.44      3.17      3.17   204.31    213.00    4.62   False
   61.35    61.49      2.93      2.93   204.29    212.00    4.60   False
   61.40    61.54      2.74      2.74   204.28    215.00    4.64   False
   61.45    61.59      2.59      2.59   204.26    212.00    4.60   False
   61.50    61.64      2.48      2.48   204.25    214.00    4.63   False
   61.55    61.69      2.39      2.39   204.23    211.00    4.59   False
   61.60    61.74      2.33      2.33   204.22    214.00    4.63   False
   61.65    61.79      2.28      2.28   204.20    217.00    4.66   False
   61.70    61.84      2.24      2.24   204.19    205.00    4.53   False
   61.75    61.89      2.21      2.21   204.17    207.00    4.55   False
   61.80    61.94      2.19      2.19   204.16    213.00    4.62   False
   61.85    61.99      2.17      2.17   204.14    208.00    4.56   False
   61.90    62.04      2.16      2.16   204.13    211.00    4.59   False
   61.95    62.09      2.15      2.15   204.11    205.00    4.53   False
   62.00    62.14      2.14      2.14   204.10    214.00    4.63   False
   62.05    62.19      2.14      2.14   204.08    213.00    4.62   False
   62.10    62.24      2.14      2.14   204.07    212.00    4.60   False
   62.15    62.29      2.14      2.14   204.05    212.00    4.60   False
   62.20    62.34      2.15      2.15   204.04    213.00    4.62   False
   62.25    62.39      2.16      2.16   204.02    207.00    4.55   False
   62.30    62.44      2.18      2.18   204.01    203.00    4.51   False
   62.35    62.49      2.20      2.20   203.99    211.00    4.59   False
   62.40    62.54      2.22      2.22   203.97    211.00    4.59   False
   62.45    62.59      2.25      2.25   203.96    214.00    4.63   False
   62.50    62.64      2.28      2.28   203.94    214.00    4.63   False
   62.55    62.69      2.33      2.33   203.93    207.00    4.55   False
   62.60    62.74      2.37      2.37   203.91    203.00    4.51   False
   62.65    62.79      2.43      2.43   203.90    212.00    4.60   False
   62.70    62.84      2.49      2.49   203.88    212.00    4.60   False
   62.75    62.89      2.57      2.57   203.87    214.00    4.63   False
   62.80    62.94      2.66      2.66   203.85    213.00    4.62   False
   62.85    62.99      2.77      2.77   203.84    202.00    4.49   False
   62.90    63.04      2.90      2.90   203.82    210.00    4.58   False
   62.95    63.09      3.07      3.07   203.81    211.00    4.59   False
   63.00    63.14      3.30      3.30   203.79    211.00    4.59   False
   63.05    63.19      3.62      3.62   203.78    214.00    4.63   False
   63.10    63.24      4.09      4.09   203.76    221.00    4.70   False
   63.15    63.29      4.78      4.78   203.75    217.00    4.66   False
   63.20    63.34      5.77      5.77   203.73    212.00    4.60   False
   63.25    63.39      7.14      7.14   203.72    214.00    4.63   False
   63.30    63.44      8.95      8.95   203.70    219.00    4.68   False
   63.35    63.49     11.19     11.19   203.69    223.00    4.72   False
   63.40    63.54     13.77     13.77   203.67    225.00    4.74   False
   63.45    63.59     16.53     16.53   203.66    227.00    4.76   False
   63.50    63.64     19.23     19.23   203.64    235.00    4.85   False
   63.55    63.69     21.60     21.60   203.63    240.00    4.90   False
   63.60    63.74     23.41     23.41   203.61    243.00    4.93   False
   63.65    63.79     24.61     24.61   203.59    252.00    5.02   False
   63.70    63.84     25.48     25.48   203.58    249.00    4.99   False
   63.75    63.89     26.71     26.71   203.56    249.00    4.99   False
   63.80    63.94     29.41     29.41   203.55    255.00    5.05   False
   63.85    63.99     34.87     34.87   203.53    262.00    5.12   False
   63.90    64.04     44.45     44.45   203.52    282.00    5.31   False
   63.95    64.09     59.24     59.24   203.50    308.00    5.55   False
   64.00    64.14     79.76     79.76   203.49    351.00    5.92   False
   64.05    64.19    105.58    105.58   203.47    398.00    6.31   False
   64.10    64.24    135.07    135.07   203.46    470.00    6.86   False
   64.15    64.29    165.38    165.38   203.44    525.00    7.25   False
   64.20    64.34    192.69    192.69   203.43    596.00    7.72   False
   64.25    64.39    212.67    212.67   203.41    646.00    8.04   False
   64.30    64.44    221.27    221.27   203.40    681.00    8.25   False
   64.35    64.49    216.13    216.13   203.38    665.00    8.15   False
   64.40    64.54    197.92    197.92   203.37    615.00    7.84   False
   64.45    64.59    170.39    170.39   203.35    563.00    7.50   False
   64.50    64.64    138.62    138.62   203.34    484.00    6.96   False
   64.55    64.69    107.16    107.16   203.32    421.00    6.49   False
   64.60    64.74     79.20     79.20   203.31    364.00    6.03   False
   64.65    64.79     56.38     56.38   203.29    317.00    5.63   False
   64.70    64.84     39.07     39.07   203.28    289.00    5.38   False
   64.75    64.89     26.71     26.71   203.26    261.00    5.11   False
   64.80    64.94     18.36     18.36   203.24    245.00    4.95   False
   64.85    64.99     12.96     12.96   203.23    233.00    4.83   False
   64.90    65.04      9.60      9.60   203.21    228.00    4.77   False
   64.95    65.09      7.56      7.56   203.20    219.00    4.68   False
   65.00    65.14      6.34      6.34   203.18    219.00    4.68   False
   65.05    65.19      5.60      5.60   203.17    217.00    4.66   False
   65.10    65.24      5.15      5.15   203.15    216.00    4.65   False
   65.15    65.29      4.84      4.84   203.14    221.00    4.70   False
   65.20    65.34      4.62      4.62   203.12    215.00    4.64   False
   65.25    65.39      4.46      4.46   203.11    215.00    4.64   False
   65.30    65.44      4.32      4.32   203.09    210.00    4.58   False
   65.35    65.49      4.21      4.21   203.08    212.00    4.60   False
   65.40    65.54      4.13      4.13   203.06    212.00    4.60   False
   65.45    65.59      4.07      4.07   203.05    204.00    4.52   False
   65.50    65.64      4.04      4.04   203.03    209.00    4.57   False
   65.55    65.69      4.04      4.04   203.02    206.00    4.54   False
   65.60    65.74      4.08      4.08   203.00    216.00    4.65   False
   65.65    65.79      4.15      4.15   202.99    207.00    4.55   False
   65.70    65.84      4.28      4.28   202.97    214.00    4.63   False
   65.75    65.89      4.49      4.49   202.96    207.00    4.55   False
   65.80    65.94      4.81      4.81   202.94    209.00    4.57   False
   65.85    65.99      5.33      5.33   202.93    218.00    4.67   False
   65.90    66.04      6.17      6.17   202.91    215.00    4.64   False
   65.95    66.09      7.53      7.53   202.89    222.00    4.71   False
   66.00    66.14      9.67      9.67   202.88    226.00    4.75   False
   66.05    66.19     12.89     12.89   202.86    230.00    4.80   False
   66.10    66.24     17.49     17.49   202.85    239.00    4.89   False
   66.15    66.29     23.66     23.66   202.83    249.00    4.99   False
   66.20    66.34     31.34     31.34   202.82    263.00    5.13   False
   66.25    66.39     40.16     40.16   202.80    275.00    5.24   False
   66.30    66.44     49.36     49.36   202.79    292.00    5.40   False
   66.35    66.49     57.88     57.88   202.77    317.00    5.63   False
   66.40    66.54     64.49     64.49   202.76    323.00    5.68   False
   66.45    66.59     67.99     67.99   202.74    341.00    5.84   False
   66.50    66.64     67.66     67.66   202.73    350.00    5.92   False
   66.55    66.69     63.63     63.63   202.71    330.00    5.74   False
   66.60    66.74     56.88     56.88   202.70    320.00    5.66   False
   66.65    66.79     48.86     48.86   202.68    307.00    5.54   False
   66.70    66.84     41.10     41.10   202.67    284.00    5.33   False
   66.75    66.89     34.94     34.94   202.65    275.00    5.24   False
   66.80    66.94     31.43     31.43   202.64    265.00    5.15   False
   66.85    66.99     31.42     31.42   202.62    269.00    5.19   False
   66.90    67.04     35.59     35.59   202.61    275.00    5.24   False
   66.95    67.09     44.42     44.42   202.59    292.00    5.40   False
   67.00    67.14     58.06     58.06   202.58    311.00    5.58   False
   67.05    67.19     76.11     76.11   202.56    338.00    5.81   False
   67.10    67.24     97.47     97.47   202.54    387.00    6.22   False
   67.15    67.29    120.30    120.30   202.53    413.00    6.43   False
   67.20    67.34    142.17    142.17   202.51    463.00    6.80   False
   67.25    67.39    160.27    160.27   202.50    510.00    7.14   False
   67.30    67.44    171.94    171.94   202.48    534.00    7.31   False
   67.35    67.49    175.62    175.62   202.47    559.00    7.48   False
   67.40    67.54    171.61    171.61   202.45    539.00    7.34   False
   67.45    67.59    161.73    161.73   202.44    533.00    7.30   False
   67.50    67.64    148.07    148.07   202.42    500.00    7.07   False
   67.55    67.69    132.10    132.10   202.41    471.00    6.86   False
   67.60    67.74    114.70    114.70   202.39    455.00    6.75   False
   67.65    67.79     96.77     96.77   202.38    410.00    6.40   False
   67.70    67.84     79.59     79.59   202.36    373.00    6.11   False
   67.75    67.89     64.62     64.62   202.35    342.00    5.85   False
   67.80    67.94     53.07     53.07   202.33    307.00    5.54   False
   67.85    67.99     45.72     45.72   202.32    288.00    5.37   False
   67.90    68.04     42.91     42.91   202.30    286.00    5.35   False
   67.95    68.09     44.43     44.43   202.29    281.00    5.30   False
   68.00    68.14     49.58     49.58   202.27    292.00    5.40   False
   68.05    68.19     57.15     57.15   202.26    291.00    5.39   False
   68.10    68.24     65.51     65.51   202.24    312.00    5.59   False
   68.15    68.29     72.81     72.81   202.23    326.00    5.71   False
   68.20    68.34     77.22     77.22   202.21    336.00    5.80   False
   68.25    68.39     77.33     77.33   202.19    346.00    5.88   False
   68.30    68.44     72.68     72.68   202.18    341.00    5.84   False
   68.35    68.49     64.14     64.14   202.16    327.00    5.72   False
   68.40    68.54     53.44     53.44   202.15    305.00    5.52   False
   68.45    68.59     42.34     42.34   202.13    277.00    5.26   False
   68.50    68.64     32.17     32.17   202.12    267.00    5.17   False
   68.55    68.69     23.67     23.67   202.10    249.00    4.99   False
   68.60    68.74     17.07     17.07   202.09    229.00    4.79   False
   68.65    68.79     12.27     12.27   202.07    221.00    4.70   False
   68.70    68.84      8.95      8.95   202.06    220.00    4.69   False
   68.75    68.89      6.75      6.75   202.04    217.00    4.66   False
   68.80    68.94      5.33      5.33   202.03    211.00    4.59   False
   68.85    68.99      4.44      4.44   202.01    204.00    4.52   False
   68.90    69.04      3.88      3.88   202.00    203.00    4.51   False
   68.95    69.09      3.52      3.52   201.98    220.00    4.69   False
   69.00    69.14      3.28      3.28   201.97    217.00    4.66   False
   69.05    69.19      3.10      3.10   201.95    217.00    4.66   False
   69.10    69.24      2.97      2.97   201.94    214.00    4.63   False
   69.15    69.29      2.86      2.86   201.92    205.00    4.53   False
   69.20    69.34      2.77      2.77   201.91    205.00    4.53   False
   69.25    69.39      2.71      2.71   201.89    211.00    4.59   False
   69.30    69.44      2.68      2.68   201.88    206.00    4.54   False
   69.35    69.49      2.69      2.69   201.86    208.00    4.56   False
   69.40    69.54      2.77      2.77   201.85    201.00    4.48   False
   69.45    69.59      2.94      2.94   201.83    208.00    4.56   False
   69.50    69.64      3.23      3.23   201.81    214.00    4.63   False
   69.55    69.69      3.66      3.66   201.80    212.00    4.60   False
   69.60    69.74      4.21      4.21   201.78    206.00    4.54   False
   69.65    69.79      4.87      4.87   201.77    216.00    4.65   False
   69.70    69.84      5.58      5.58   201.75    219.00    4.68   False
   69.75    69.89      6.24      6.24   201.74    215.00    4.64   False
   69.80    69.94      6.77      6.77   201.72    217.00    4.66   False
   69.85    69.99      7.08      7.08   201.71    211.00    4.59   False
   69.90    70.04      7.15      7.15   201.69    214.00    4.63   False
   69.95    70.09      7.05      7.05   201.68    215.00    4.64   False
   70.00    70.14      6.95      6.95   201.66    224.00    4.73   False
   70.05    70.19      7.00      7.00   201.71    217.00    4.66   False
   70.10    70.24      7.35      7.35   201.75    215.00    4.64   False
   70.15    70.29      8.02      8.02   201.79    218.00    4.67   False
   70.20    70.34      8.96      8.96   201.84    218.00    4.67   False
   70.25    70.39     10.01     10.01   201.88    228.00    4.77   False
   70.30    70.44     10.94     10.94   201.93    227.00    4.76   False
   70.35    70.49     11.51     11.51   201.97    228.00    4.77   False
   70.40    70.54     11.52     11.52   202.01    225.00    4.74   False
   70.45    70.59     10.89     10.89   202.06    219.00    4.68   False
   70.50    70.64      9.76      9.76   202.10    216.00    4.65   False
   70.55    70.69      8.34      8.34   202.15    219.00    4.68   False
   70.60    70.74      6.90      6.90   202.19    218.00    4.67   False
   70.65    70.79      5.59      5.59   202.23    214.00    4.63   False
   70.70    70.84      4.51      4.51   202.28    212.00    4.60   False
   70.75    70.89      3.69      3.69   202.32    221.00    4.70   False
   70.80    70.94      3.10      3.10   202.37    214.00    4.63   False
   70.85    70.99      2.69      2.69   202.41    208.00    4.56   False
   70.90    71.04      2.42      2.42   202.46    204.00    4.52   False
   70.95    71.09      2.25      2.25   202.50    209.00    4.57   False
   71.00    71.14      2.15      2.15   202.54    209.00    4.57   False
   71.05    71.19      2.09      2.09   202.59    208.00    4.56   False
   71.10    71.24      2.07      2.07   202.63    212.00    4.60   False
   71.15    71.29      2.07      2.07   202.68    213.00    4.62   False
   71.20    71.34      2.09      2.09   202.72    218.00    4.67   False
   71.25    71.39      2.13      2.13   202.76    212.00    4.60   False
   71.30    71.44      2.18      2.18   202.81    205.00    4.53   False
   71.35    71.49      2.26      2.26   202.85    207.00    4.55   False
   71.40    71.54      2.38      2.38   202.90    204.00    4.52   False
   71.45    71.59      2.55      2.55   202.94    206.00    4.54   False
   71.50    71.64      2.81      2.81   202.98    211.00    4.59   False
   71.55    71.69      3.19      3.19   203.03    216.00    4.65   False
   71.60    71.74      3.76      3.76   203.07    214.00    4.63   False
   71.65    71.79      4.55      4.55   203.12    210.00    4.58   False
   71.70    71.84      5.63      5.63   203.16    219.00    4.68   False
   71.75    71.89      7.01      7.01   203.20    222.00    4.71   False
   71.80    71.94      8.66      8.66   203.25    224.00    4.73   False
   71.85    71.99     10.51     10.51   203.29    231.00    4.81   False
   71.90    72.04     12.43     12.43   203.34    227.00    4.76   False
   71.95    72.09     14.22     14.22   203.38    237.00    4.87   False
   72.00    72.14     15.72     15.72   203.42    235.00    4.85   False
   72.05    72.19     16.81     16.81   203.47    238.00    4.88   False
   72.10    72.24     17.48     17.48   203.51    245.00    4.95   False
   72.15    72.29     17.87     17.87   203.56    242.00    4.92   False
   72.20    72.34     18.24     18.24   203.60    248.00    4.98   False
   72.25    72.39     19.11     19.11   203.64    246.00    4.96   False
   72.30    72.44     21.08     21.08   203.69    243.00    4.93   False
   72.35    72.49     24.69     24.69   203.73    253.00    5.03   False
   72.40    72.54     30.19     30.19   203.78    259.00    5.09   False
   72.45    72.59     37.35     37.35   203.82    278.00    5.27   False
   72.50    72.64     45.44     45.44   203.86    281.00    5.30   False
   72.55    72.69     53.27     53.27   203.91    297.00    5.45   False
   72.60    72.74     59.35     59.35   203.95    310.00    5.57   False
   72.65    72.79     62.23     62.23   204.00    324.00    5.69   False
   72.70    72.84     60.99     60.99   204.04    322.00    5.67   False
   72.75    72.89     55.76     55.76   204.08    311.00    5.58   False
   72.80    72.94     47.78     47.78   204.13    295.00    5.43   False
   72.85    72.99     38.74     38.74   204.17    281.00    5.30   False
   72.90    73.04     30.04     30.04   204.22    259.00    5.09   False
   72.95    73.09     22.55     22.55   204.26    250.00    5.00   False
   73.00    73.14     16.64     16.64   204.30    239.00    4.89   False
   73.05    73.19     12.29     12.29   204.35    233.00    4.83   False
   73.10    73.24      9.28      9.28   204.39    227.00    4.76   False
   73.15    73.29      7.33      7.33   204.44    226.00    4.75   False
   73.20    73.34      6.13      6.13   204.48    223.00    4.72   False
   73.25    73.39      5.44      5.44   204.53    211.00    4.59   False
   73.30    73.44      5.09      5.09   204.57    209.00    4.57   False
   73.35    73.49      4.95      4.95   204.61    217.00    4.66   False
   73.40    73.54      4.93      4.93   204.66    214.00    4.63   False
   73.45    73.59      4.98      4.98   204.70    213.00    4.62   False
   73.50    73.64      5.09      5.09   204.75    217.00    4.66   False
   73.55    73.69      5.25      5.25   204.79    220.00    4.69   False
   73.60    73.74      5.43      5.43   204.83    210.00    4.58   False
   73.65    73.79      5.66      5.66   204.88    209.00    4.57   False
   73.70    73.84      5.93      5.93   204.92    215.00    4.64   False
   73.75    73.89      6.25      6.25   204.97    218.00    4.67   False
   73.80    73.94      6.62      6.62   205.01    215.00    4.64   False
   73.85    73.99      7.07      7.07   205.05    217.00    4.66   False
   73.90    74.04      7.60      7.60   205.10    221.00    4.70   False
   73.95    74.09      8.23      8.23   205.14    217.00    4.66   False
   74.00    74.14      9.00      9.00   205.19    219.00    4.68   False
   74.05    74.19      9.93      9.93   205.23    220.00    4.69   False
   74.10    74.24     11.09     11.09   205.27    228.00    4.77   False
   74.15    74.29     12.57     12.57   205.32    229.00    4.79   False
   74.20    74.34     14.55     14.55   205.36    230.00    4.80   False
   74.25    74.39     17.37     17.37   205.41    234.00    4.84   False
   74.30    74.44     21.63     21.63   205.45    251.00    5.01   False
   74.35    74.49     28.38     28.38   205.49    261.00    5.11   False
   74.40    74.54     39.31     39.31   205.54    288.00    5.37   False
   74.45    74.59     56.74     56.74   205.58    313.00    5.59   False
   74.50    74.64     83.48     83.48   205.63    362.00    6.02   False
   74.55    74.69    122.13    122.13   205.67    424.00    6.51   False
   74.60    74.74    174.04    174.04   205.71    524.00    7.24   False
   74.65    74.79    238.13    238.13   205.76    646.00    8.04   False
   74.70    74.84    310.07    310.07   205.80    781.00    8.84   False
   74.75    74.89    382.34    382.34   205.85    920.00    9.59   False
   74.80    74.94    445.34    445.34   205.89   1024.00   10.12   False
   74.85    74.99    489.30    489.30   205.93   1120.00   10.58   False
   74.90    75.04    507.46    507.46   205.98   1187.00   10.89   False
   74.95    75.09    499.94    499.94   206.02   1187.00   10.89   False
   75.00    75.14    474.19    474.19   206.07   1166.00   10.80   False
   75.05    75.19    439.85    439.85   206.11   1114.00   10.55   False
   75.10    75.24    403.08    403.08   206.15   1044.00   10.22   False
   75.15    75.29    365.03    365.03   206.20    991.00    9.95   False
   75.20    75.34    323.72    323.72   206.24    927.00    9.63   False
   75.25    75.39    277.58    277.58   206.29    823.00    9.07   False
   75.30    75.44    228.17    228.17   206.33    717.00    8.47   False
   75.35    75.49    179.63    179.63   206.37    619.00    7.87   False
   75.40    75.54    136.08    136.08   206.42    520.00    7.21   False
   75.45    75.59     99.92     99.92   206.46    421.00    6.49   False
   75.50    75.64     71.81     71.81   206.51    353.00    5.94   False
   75.55    75.69     51.12     51.12   206.55    308.00    5.55   False
   75.60    75.74     36.60     36.60   206.59    273.00    5.22   False
   75.65    75.79     26.80     26.80   206.64    256.00    5.06   False
   75.70    75.84     20.37     20.37   206.68    245.00    4.95   False
   75.75    75.89     16.25     16.25   206.73    234.00    4.84   False
   75.80    75.94     13.62     13.62   206.77    230.00    4.80   False
   75.85    75.99     11.91     11.91   206.82    224.00    4.73   False
   75.90    76.04     10.78     10.78   206.86    232.00    4.82   False
   75.95    76.09     10.00     10.00   206.90    226.00    4.75   False
   76.00    76.14      9.49      9.49   206.95    222.00    4.71   False
   76.05    76.19      9.22      9.22   206.99    222.00    4.71   False
   76.10    76.24      9.23      9.23   207.04    227.00    4.76   False
   76.15    76.29      9.55      9.55   207.08    225.00    4.74   False
   76.20    76.34     10.23     10.23   207.12    226.00    4.75   False
   76.25    76.39     11.24     11.24   207.17    227.00    4.76   False
   76.30    76.44     12.49     12.49   207.21    229.00    4.79   False
   76.35    76.49     13.79     13.79   207.26    235.00    4.85   False
   76.40    76.54     14.88     14.88   207.30    233.00    4.83   False
   76.45    76.59     15.48     15.48   207.34    243.00    4.93   False
   76.50    76.64     15.38     15.38   207.39    238.00    4.88   False
   76.55    76.69     14.54     14.54   207.43    237.00    4.87   False
   76.60    76.74     13.13     13.13   207.48    236.00    4.86   False
   76.65    76.79     11.48     11.48   207.52    232.00    4.82   False
   76.70    76.84      9.87      9.87   207.56    231.00    4.81   False
   76.75    76.89      8.50      8.50   207.61    227.00    4.76   False
   76.80    76.94      7.44      7.44   207.65    225.00    4.74   False
   76.85    76.99      6.72      6.72   207.70    220.00    4.69   False
   76.90    77.04      6.32      6.32   207.74    218.00    4.67   False
   76.95    77.09      6.24      6.24   207.78    215.00    4.64   False
   77.00    77.14      6.51      6.51   207.83    219.00    4.68   False
   77.05    77.19      7.25      7.25   207.87    224.00    4.73   False
   77.10    77.24      8.67      8.67   207.92    225.00    4.74   False
   77.15    77.29     11.09     11.09   207.96    222.00    4.71   False
   77.20    77.34     14.88     14.88   208.00    231.00    4.81   False
   77.25    77.39     20.34     20.34   208.05    243.00    4.93   False
   77.30    77.44     27.58     27.58   208.09    250.00    5.00   False
   77.35    77.49     36.23     36.23   208.14    269.00    5.19   False
   77.40    77.54     45.44     45.44   208.18    286.00    5.35   False
   77.45    77.59     53.85     53.85   208.22    310.00    5.57   False
   77.50    77.64     59.87     59.87   208.27    325.00    5.70   False
   77.55    77.69     62.01     62.01   208.31    332.00    5.76   False
   77.60    77.74     59.57     59.57   208.36    337.00    5.81   False
   77.65    77.79     53.16     53.16   208.40    329.00    5.74   False
   77.70    77.84     44.47     44.47   208.44    303.00    5.50   False
   77.75    77.89     35.37     35.37   208.49    278.00    5.27   False
   77.80    77.94     27.13     27.13   208.53    268.00    5.18   False
   77.85    77.99     20.42     20.42   208.58    252.00    5.02   False
   77.90    78.04     15.37     15.37   208.62    236.00    4.86   False
   77.95    78.09     11.81     11.81   208.66    228.00    4.77   False
   78.00    78.14      9.47      9.47   208.71    219.00    4.68   False
   78.05    78.19      8.05      8.05   208.75    225.00    4.74   False
   78.10    78.24      7.27      7.27   208.80    222.00    4.71   False
   78.15    78.29      6.95      6.95   208.84    214.00    4.63   False
   78.20    78.34      6.94      6.94   208.88    228.00    4.77   False
   78.25    78.39      7.18      7.18   208.93    221.00    4.70   False
   78.30    78.44      7.69      7.69   208.97    217.00    4.66   False
   78.35    78.49      8.56      8.56   209.02    221.00    4.70   False
   78.40    78.54      9.96      9.96   209.06    222.00    4.71   False
   78.45    78.59     12.19     12.19   209.11    226.00    4.75   False
   78.50    78.64     15.57     15.57   209.15    237.00    4.87   False
   78.55    78.69     20.44     20.44   209.19    246.00    4.96   False
   78.60    78.74     26.93     26.93   209.24    255.00    5.05   False
   78.65    78.79     34.83     34.83   209.28    269.00    5.19   False
   78.70    78.84     43.51     43.51   209.33    284.00    5.33   False
   78.75    78.89     51.90     51.90   209.37    302.00    5.50   False
   78.80    78.94     58.71     58.71   209.41    313.00    5.59   False
   78.85    78.99     62.83     62.83   209.46    327.00    5.72   False
   78.90    79.04     63.92     63.92   209.50    321.00    5.67   False
   78.95    79.09     63.11     63.11   209.55    333.00    5.77   False
   79.00    79.14     63.05     63.05   209.59    331.00    5.75   False
   79.05    79.19     67.25     67.25   209.63    332.00    5.76   False
   79.10    79.24     79.34     79.34   209.68    358.00    5.98   False
   79.15    79.29    102.56    102.56   209.72    402.00    6.34   False
   79.20    79.34    138.84    138.84   209.77    460.00    6.78   False
   79.25    79.39    187.72    187.72   209.81    557.00    7.46   False
   79.30    79.44    245.35    245.35   209.85    660.00    8.12   False
   79.35    79.49    304.10    304.10   209.90    769.00    8.77   False
   79.40    79.54    353.51    353.51   209.94    859.00    9.27   False
   79.45    79.59    382.36    382.36   209.99    934.00    9.66   False
   79.50    79.64    382.19    382.19   210.03    955.00    9.77   False
   79.55    79.69    352.00    352.00   210.07    921.00    9.60   False
   79.60    79.74    300.15    300.15   210.12    824.00    9.08   False
   79.65    79.79    239.68    239.68   210.16    694.00    8.33   False
   79.70    79.84    181.71    181.71   210.21    578.00    7.60   False
   79.75    79.89    132.74    132.74   210.25    474.00    6.88   False
   79.80    79.94     95.18     95.18   210.29    402.00    6.34   False
   79.85    79.99     68.87     68.87   210.34    344.00    5.87   False
   79.90    80.04     52.37     52.37   210.38    306.00    5.53   False
   79.95    80.09     43.81     43.81   210.43    300.00    5.48   False
   80.00    80.14     41.23     41.23   210.47    292.00    5.40   False
   80.05    80.19     42.69     42.69   210.51    292.00    5.40   False
   80.10    80.24     46.23     46.23   210.56    302.00    5.50   False
   80.15    80.29     49.94     49.94   210.60    304.00    5.51   False
   80.20    80.34     52.13     52.13   210.65    306.00    5.53   False
   80.25    80.39     51.64     51.64   210.69    305.00    5.52   False
   80.30    80.44     48.11     48.11   210.73    303.00    5.50   False
   80.35    80.49     42.23     42.23   210.78    299.00    5.47   False
   80.40    80.54     35.29     35.29   210.82    278.00    5.27   False
   80.45    80.59     28.52     28.52   210.87    259.00    5.09   False
   80.50    80.64     22.72     22.72   210.91    257.00    5.07   False
   80.55    80.69     18.21     18.21   210.95    245.00    4.95   False
   80.60    80.74     15.02     15.02   211.00    237.00    4.87   False
   80.65    80.79     13.05     13.05   211.04    240.00    4.90   False
   80.70    80.84     12.22     12.22   211.09    233.00    4.83   False
   80.75    80.89     12.56     12.56   211.13    232.00    4.82   False
   80.80    80.94     14.26     14.26   211.18    235.00    4.85   False
   80.85    80.99     17.63     17.63   211.22    241.00    4.91   False
   80.90    81.04     23.06     23.06   211.26    257.00    5.07   False
   80.95    81.09     30.77     30.77   211.31    274.00    5.23   False
   81.00    81.14     40.61     40.61   211.35    292.00    5.40   False
   81.05    81.19     51.87     51.87   211.40    309.00    5.56   False
   81.10    81.24     63.28     63.28   211.44    333.00    5.77   False
   81.15    81.29     73.28     73.28   211.48    360.00    6.00   False
   81.20    81.34     80.35     80.35   211.53    381.00    6.17   False
   81.25    81.39     83.72     83.72   211.57    387.00    6.22   False
   81.30    81.44     83.91     83.91   211.62    387.00    6.22   False
   81.35    81.49     82.48     82.48   211.66    386.00    6.21   False
   81.40    81.54     80.76     80.76   211.70    382.00    6.18   False
   81.45    81.59     78.92     78.92   211.75    368.00    6.07   False
   81.50    81.64     76.07     76.07   211.79    363.00    6.02   False
   81.55    81.69     70.98     70.98   211.84    352.00    5.93   False
   81.60    81.74     63.08     63.08   211.88    337.00    5.81   False
   81.65    81.79     53.10     53.10   211.92    321.00    5.67   False
   81.70    81.84     42.61     42.61   211.97    297.00    5.45   False
   81.75    81.89     33.05     33.05   212.01    281.00    5.30   False
   81.80    81.94     25.19     25.19   212.06    265.00    5.15   False
   81.85    81.99     19.20     19.20   212.10    255.00    5.05   False
   81.90    82.04     14.92     14.92   212.14    251.00    5.01   False
   81.95    82.09     12.03     12.03   212.19    237.00    4.87   False
   82.00    82.14     10.20     10.20   212.23    238.00    4.88   False
   82.05    82.19      9.14      9.14   212.28    237.00    4.87   False
   82.10    82.24      8.62      8.62   212.32    228.00    4.77   False
   82.15    82.29      8.47      8.47   212.36    240.00    4.90   False
   82.20    82.34      8.59      8.59   212.41    234.00    4.84   False
   82.25    82.39      8.93      8.93   212.45    226.00    4.75   False
   82.30    82.44      9.50      9.50   212.50    229.00    4.79   False
   82.35    82.49     10.36     10.36   212.54    228.00    4.77   False
   82.40    82.54     11.64     11.64   212.58    233.00    4.83   False
   82.45    82.59     13.68     13.68   212.63    243.00    4.93   False
   82.50    82.64     17.02     17.02   212.67    241.00    4.91   False
   82.55    82.69     22.65     22.65   212.72    257.00    5.07   False
   82.60    82.74     32.04     32.04   212.76    279.00    5.28   False
   82.65    82.79     47.08     47.08   212.80    305.00    5.52   False
   82.70    82.84     69.69     69.69   212.85    345.00    5.87   False
   82.75    82.89    100.95    100.95   212.89    410.00    6.40   False
   82.80    82.94    140.04    140.04   212.94    455.00    6.75   False
   82.85    82.99    183.42    183.42   212.98    545.00    7.38   False
   82.90    83.04    224.72    224.72   213.02    622.00    7.89   False
   82.95    83.09    255.74    255.74   213.07    673.00    8.20   False
   83.00    83.14    268.54    268.54   213.11    725.00    8.51   False
   83.05    83.19    258.72    258.72   213.16    717.00    8.47   False
   83.10    83.24    228.82    228.82   213.20    661.00    8.13   False
   83.15    83.29    187.58    187.58   213.24    592.00    7.69   False
   83.20    83.34    144.66    144.66   213.29    518.00    7.20   False
   83.25    83.39    106.55    106.55   213.33    443.00    6.66   False
   83.30    83.44     76.02     76.02   213.38    371.00    6.09   False
   83.35    83.49     53.33     53.33   213.42    336.00    5.80   False
   83.40    83.54     37.44     37.44   213.47    290.00    5.39   False
   83.45    83.59     26.90     26.90   213.51    265.00    5.15   False
   83.50    83.64     20.32     20.32   213.55    252.00    5.02   False
   83.55    83.69     16.53     16.53   213.60    250.00    5.00   False
   83.60    83.74     14.64     14.64   213.64    244.00    4.94   False
   83.65    83.79     13.98     13.98   213.69    242.00    4.92   False
   83.70    83.84     14.11     14.11   213.73    241.00    4.91   False
   83.75    83.89     14.70     14.70   213.77    243.00    4.93   False
   83.80    83.94     15.56     15.56   213.82    248.00    4.98   False
   83.85    83.99     16.62     16.62   213.86    253.00    5.03   False
   83.90    84.04     18.02     18.02   213.91    252.00    5.02   False
   83.95    84.09     20.21     20.21   213.95    264.00    5.14   False
   84.00    84.14     24.02     24.02   213.99    266.00    5.16   False
   84.05    84.19     30.53     30.53   214.04    282.00    5.31   False
   84.10    84.24     40.75     40.75   214.08    291.00    5.39   False
   84.15    84.29     55.18     55.18   214.13    313.00    5.59   False
   84.20    84.34     73.26     73.26   214.17    346.00    5.88   False
   84.25    84.39     93.06     93.06   214.21    374.00    6.12   False
   84.30    84.44    111.36    111.36   214.26    415.00    6.44   False
   84.35    84.49    124.20    124.20   214.30    430.00    6.56   False
   84.40    84.54    128.02    128.02   214.35    433.00    6.58   False
   84.45    84.59    121.38    121.38   214.39    430.00    6.56   False
   84.50    84.64    106.38    106.38   214.43    406.00    6.37   False
   84.55    84.69     87.66     87.66   214.48    384.00    6.20   False
   84.60    84.74     69.75     69.75   214.52    349.00    5.91   False
   84.65    84.79     55.53     55.53   214.57    318.00    5.64   False
   84.70    84.84     46.24     46.24   214.61    307.00    5.54   False
   84.75    84.89     42.03     42.03   214.65    298.00    5.46   False
   84.80    84.94     42.27     42.27   214.70    296.00    5.44   False
   84.85    84.99     45.81     45.81   214.74    304.00    5.51   False
   84.90    85.04     51.02     51.02   214.79    313.00    5.59   False
   84.95    85.09     56.03     56.03   214.83    328.00    5.73   False
   85.00    85.14     59.10     59.10   214.87    346.00    5.88   False
   85.05    85.19     59.23     59.23   214.92    341.00    5.84   False
   85.10    85.24     56.86     56.86   214.96    335.00    5.79   False
   85.15    85.29     53.97     53.97   215.01    324.00    5.69   False
   85.20    85.34     53.12     53.12   215.05    336.00    5.80   False
   85.25    85.39     56.35     56.35   215.09    341.00    5.84   False
   85.30    85.44     64.67     64.67   215.14    341.00    5.84   False
   85.35    85.49     77.92     77.92   215.18    370.00    6.08   False
   85.40    85.54     94.78     94.78   215.23    414.00    6.43   False
   85.45    85.59    113.16    113.16   215.27    442.00    6.65   False
   85.50    85.64    130.74    130.74   215.31    490.00    7.00   False
   85.55    85.69    145.82    145.82   215.36    520.00    7.21   False
   85.60    85.74    158.29    158.29   215.40    532.00    7.29   False
   85.65    85.79    169.81    169.81   215.45    548.00    7.40   False
   85.70    85.84    182.01    182.01   215.49    561.00    7.49   False
   85.75    85.89    194.06    194.06   215.53    567.00    7.53   False
   85.80    85.94    202.19    202.19   215.58    585.00    7.65   False
   85.85    85.99    201.34    201.34   215.62    584.00    7.64   False
   85.90    86.04    188.11    188.11   215.67    558.00    7.47   False
   85.95    86.09    163.63    163.63   215.71    527.00    7.26   False
   86.00    86.14    133.47    133.47   215.76    481.00    6.94   False
   86.05    86.19    103.86    103.86   215.80    424.00    6.51   False
   86.10    86.24     78.85     78.85   215.84    370.00    6.08   False
   86.15    86.29     60.04     60.04   215.89    333.00    5.77   False
   86.20    86.34     47.60     47.60   215.93    312.00    5.59   False
   86.25    86.39     41.29     41.29   215.98    301.00    5.49   False
   86.30    86.44     41.12     41.12   216.02    307.00    5.54   False
   86.35    86.49     47.60     47.60   216.06    314.00    5.60   False
   86.40    86.54     61.44     61.44   216.11    340.00    5.83   False
   86.45    86.59     82.95     82.95   216.15    379.00    6.16   False
   86.50    86.64    111.12    111.12   216.20    427.00    6.53   False
   86.55    86.69    142.87    142.87   216.24    467.00    6.83   False
   86.60    86.74    172.92    172.92   216.28    535.00    7.31   False
   86.65    86.79    194.66    194.66   216.33    584.00    7.64   False
   86.70    86.84    201.92    201.92   216.37    602.00    7.76   False
   86.75    86.89    191.79    191.79   216.42    580.00    7.62   False
   86.80    86.94    167.21    167.21   216.46    532.00    7.29   False
   86.85    86.99    135.65    135.65   216.50    481.00    6.94   False
   86.90    87.04    104.44    104.44   216.55    426.00    6.53   False
   86.95    87.09     77.91     77.91   216.59    379.00    6.16   False
   87.00    87.14     57.50     57.50   216.64    329.00    5.74   False
   87.05    87.19     42.89     42.89   216.68    303.00    5.50   False
   87.10    87.24     33.08     33.08   216.72    288.00    5.37   False
   87.15    87.29     26.92     26.92   216.77    271.00    5.21   False
   87.20    87.34     23.40     23.40   216.81    269.00    5.19   False
   87.25    87.39     21.67     21.67   216.86    267.00    5.17   False
   87.30    87.44     21.07     21.07   216.90    263.00    5.13   False
   87.35    87.49     21.15     21.15   216.94    267.00    5.17   False
   87.40    87.54     21.61     21.61   216.99    260.00    5.10   False
   87.45    87.59     22.34     22.34   217.03    260.00    5.10   False
   87.50    87.64     23.44     23.44   217.08    263.00    5.13   False
   87.55    87.69     25.19     25.19   217.12    263.00    5.13   False
   87.60    87.74     28.07     28.07   217.16    270.00    5.20   False
   87.65    87.79     32.89     32.89   217.21    278.00    5.27   False
   87.70    87.84     40.98     40.98   217.25    293.00    5.41   False
   87.75    87.89     54.39     54.39   217.30    318.00    5.64   False
   87.80    87.94     76.01     76.01   217.34    364.00    6.03   False
   87.85    87.99    109.25    109.25   217.38    424.00    6.51   False
   87.90    88.04    157.32    157.32   217.43    512.00    7.16   False
   87.95    88.09    221.81    221.81   217.47    643.00    8.02   False
   88.00    88.14    301.03    301.03   217.52    817.00    9.04   False
   88.05    88.19    388.60    388.60   217.56    982.00    9.91   False
   88.10    88.24    473.27    473.27   217.60   1163.00   10.78   False
   88.15    88.29    541.14    541.14   217.65   1289.00   11.35   False
   88.20    88.34    580.31    580.31   217.69   1373.00   11.72   False
   88.25    88.39    584.70    584.70   217.74   1393.00   11.80   False
   88.30    88.44    556.42    556.42   217.78   1348.00   11.61   False
   88.35    88.49    507.74    507.74   217.83   1244.00   11.15   False
   88.40    88.54    456.32    456.32   217.87   1157.00   10.76   False
   88.45    88.59    414.72    414.72   217.91   1077.00   10.38   False
   88.50    88.64    385.17    385.17   217.96   1020.00   10.10   False
   88.55    88.69    362.02    362.02   218.00    965.00    9.82   False
   88.60    88.74    336.63    336.63   218.05    907.00    9.52   False
   88.65    88.79    301.91    301.91   218.09    858.00    9.26   False
   88.70    88.84    256.58    256.58   218.13    771.00    8.78   False
   88.75    88.89    206.17    206.17   218.18    647.00    8.04   False
   88.80    88.94    158.44    158.44   218.22    555.00    7.45   False
   88.85    88.99    118.48    118.48   218.27    468.00    6.84   False
   88.90    89.04     87.77     87.77   218.31    405.00    6.36   False
   88.95    89.09     65.55     65.55   218.35    348.00    5.90   False
   89.00    89.14     50.18     50.18   218.40    316.00    5.62   False
   89.05    89.19     39.96     39.96   218.44    291.00    5.39   False
   89.10    89.24     33.46     33.46   218.49    277.00    5.26   False
   89.15    89.29     29.59     29.59   218.53    278.00    5.27   False
   89.20    89.34     27.56     27.56   218.57    270.00    5.20   False
   89.25    89.39     26.86     26.86   218.62    262.00    5.12   False
   89.30    89.44     27.28     27.28   218.66    268.00    5.18   False
   89.35    89.49     28.88     28.88   218.71    270.00    5.20   False
   89.40    89.54     31.94     31.94   218.75    279.00    5.28   False
   89.45    89.59     36.87     36.87   218.79    287.00    5.36   False
   89.50    89.64     44.04     44.04   218.84    300.00    5.48   False
   89.55    89.69     53.74     53.74   218.88    319.00    5.65   False
   89.60    89.74     66.16     66.16   218.93    347.00    5.89   False
   89.65    89.79     81.70     81.70   218.97    378.00    6.15   False
   89.70    89.84    101.61    101.61   219.01    420.00    6.48   False
   89.75    89.89    128.58    128.58   219.06    469.00    6.85   False
   89.80    89.94    167.04    167.04   219.10    536.00    7.32   False
   89.85    89.99    222.19    222.19   219.15    645.00    8.03   False
   89.90    90.04    296.94    296.94   219.19    773.00    8.79   False
   89.95    90.09    388.17    388.17   219.23    925.00    9.62   False
   90.00    90.14    484.83    484.83   219.28   1115.00   10.56   False
   90.05    90.19    569.10    569.10   219.32   1254.00   11.20   False
   90.10    90.24    620.70    620.70   219.37   1367.00   11.69   False
   90.15    90.29    624.81    624.81   219.41   1400.00   11.83   False
   90.20    90.34    581.38    581.38   219.45   1327.00   11.52   False
   90.25    90.39    505.51    505.51   219.50   1188.00   10.90   False
   90.30    90.44    416.76    416.76   219.54   1038.00   10.19   False
   90.35    90.49    331.51    331.51   219.59    879.00    9.38   False
   90.40    90.54    261.56    261.56   219.63    738.00    8.59   False
   90.45    90.59    213.75    213.75   219.67    644.00    8.03   False
   90.50    90.64    190.40    190.40   219.72    594.00    7.71   False
   90.55    90.69    190.24    190.24   219.76    601.00    7.75   False
   90.60    90.74    208.91    208.91   219.81    643.00    8.02   False
   90.65    90.79    238.70    238.70   219.85    697.00    8.35   False
   90.70    90.84    269.05    269.05   219.89    786.00    8.87   False
   90.75    90.89    288.17    288.17   219.94    842.00    9.18   False
   90.80    90.94    286.40    286.40   219.98    847.00    9.20   False
   90.85    90.99    260.97    260.97   220.03    791.00    8.89   False
   90.90    91.04    218.70    218.70   220.07    702.00    8.38   False
   90.95    91.09    171.32    171.32   220.12    592.00    7.69   False
   91.00    91.14    128.14    128.14   220.16    508.00    7.13   False
   91.05    91.19     93.37     93.37   220.20    418.00    6.47   False
   91.10    91.24     67.45     67.45   220.25    362.00    6.02   False
   91.15    91.29     49.08     49.08   220.29    328.00    5.73   False
   91.20    91.34     36.51     36.51   220.34    299.00    5.47   False
   91.25    91.39     28.20     28.20   220.38    279.00    5.28   False
   91.30    91.44     22.86     22.86   220.42    270.00    5.20   False
   91.35    91.49     19.52     19.52   220.47    257.00    5.07   False
   91.40    91.54     17.45     17.45   220.51    253.00    5.03   False
   91.45    91.59     16.17     16.17   220.56    258.00    5.08   False
   91.50    91.64     15.43     15.43   220.60    257.00    5.07   False
   91.55    91.69     15.14     15.14   220.64    249.00    4.99   False
   91.60    91.74     15.43     15.43   220.69    245.00    4.95   False
   91.65    91.79     16.55     16.55   220.73    257.00    5.07   False
   91.70    91.84     18.97     18.97   220.78    260.00    5.10   False
   91.75    91.89     23.24     23.24   220.82    284.00    5.33   False
   91.80    91.94     29.84     29.84   220.86    296.00    5.44   False
   91.85    91.99     38.88     38.88   220.91    322.00    5.67   False
   91.90    92.04     49.69     49.69   220.95    343.00    5.86   False
   91.95    92.09     60.70     60.70   221.00    382.00    6.18   False
   92.00    92.14     69.63     69.63   221.04    405.00    6.36   False
   92.05    92.19     74.08     74.08   221.08    411.00    6.41   False
   92.10    92.24     72.62     72.62   221.13    416.00    6.45   False
   92.15    92.29     65.95     65.95   221.17    406.00    6.37   False
   92.20    92.34     56.86     56.86   221.22    372.00    6.10   False
   92.25    92.39     48.42     48.42   221.26    353.00    5.94   False
   92.30    92.44     42.33     42.33   221.30    330.00    5.74   False
   92.35    92.49     38.77     38.77   221.35    317.00    5.63   False
   92.40    92.54     36.89     36.89   221.39    313.00    5.59   False
   92.45    92.59     35.41     35.41   221.44    312.00    5.59   False
   92.50    92.64     33.19     33.19   221.48    309.00    5.56   False
   92.55    92.69     29.72     29.72   221.52    303.00    5.50   False
   92.60    92.74     25.36     25.36   221.57    288.00    5.37   False
   92.65    92.79     20.93     20.93   221.61    276.00    5.25   False
   92.70    92.84     17.10     17.10   221.66    264.00    5.14   False
   92.75    92.89     14.13     14.13   221.70    246.00    4.96   False
   92.80    92.94     11.99     11.99   221.74    249.00    4.99   False
   92.85    92.99     10.52     10.52   221.79    241.00    4.91   False
   92.90    93.04      9.58      9.58   221.83    251.00    5.01   False
   92.95    93.09      9.04      9.04   221.88    243.00    4.93   False
   93.00    93.14      8.80      8.80   221.92    246.00    4.96   False
   93.05    93.19      8.80      8.80   221.96    246.00    4.96   False
   93.10    93.24      9.02      9.02   222.01    249.00    4.99   False
   93.15    93.29      9.49      9.49   222.05    244.00    4.94   False
   93.20    93.34     10.32     10.32   222.10    252.00    5.02   False
   93.25    93.39     11.73     11.73   222.14    252.00    5.02   False
   93.30    93.44     14.11     14.11   222.19    258.00    5.08   False
   93.35    93.49     17.99     17.99   222.23    265.00    5.15   False
   93.40    93.54     23.93     23.93   222.27    263.00    5.13   False
   93.45    93.59     32.29     32.29   222.32    284.00    5.33   False
   93.50    93.64     42.88     42.88   222.36    299.00    5.47   False
   93.55    93.69     54.64     54.64   222.41    320.00    5.66   False
   93.60    93.74     65.66     65.66   222.45    344.00    5.87   False
   93.65    93.79     73.58     73.58   222.49    363.00    6.02   False
   93.70    93.84     76.46     76.46   222.54    372.00    6.10   False
   93.75    93.89     74.01     74.01   222.58    358.00    5.98   False
   93.80    93.94     68.30     68.30   222.63    351.00    5.92   False
   93.85    93.99     62.64     62.64   222.67    354.00    5.95   False
   93.90    94.04     59.46     59.46   222.71    330.00    5.74   False
   93.95    94.09     59.41     59.41   222.76    322.00    5.67   False
   94.00    94.14     61.54     61.54   222.80    334.00    5.78   False
   94.05    94.19     64.08     64.08   222.85    339.00    5.82   False
   94.10    94.24     65.36     65.36   222.89    345.00    5.87   False
   94.15    94.29     64.82     64.82   222.93    357.00    5.97   False
   94.20    94.34     63.95     63.95   222.98    360.00    6.00   False
   94.25    94.39     66.24     66.24   223.02    358.00    5.98   False
   94.30    94.44     76.23     76.23   223.07    372.00    6.10   False
   94.35    94.49     98.87     98.87   223.11    425.00    6.52   False
   94.40    94.54    138.90    138.90   223.15    511.00    7.15   False
   94.45    94.59    199.21    199.21   223.20    626.00    7.91   False
   94.50    94.64    278.21    278.21   223.24    770.00    8.78   False
   94.55    94.69    367.21    367.21   223.29    946.00    9.73   False
   94.60    94.74    450.12    450.12   223.33   1118.00   10.57   False
   94.65    94.79    506.33    506.33   223.37   1205.00   10.98   False
   94.70    94.84    517.38    517.38   223.42   1227.00   11.08   False
   94.75    94.89    477.13    477.13   223.46   1157.00   10.76   False
   94.80    94.94    399.09    399.09   223.51   1041.00   10.20   False
   94.85    94.99    308.43    308.43   223.55    873.00    9.34   False
   94.90    95.04    225.63    225.63   223.59    715.00    8.46   False
   94.95    95.09    159.78    159.78   223.64    562.00    7.50   False
   95.00    95.14    111.52    111.52   223.68    446.00    6.68   False
   95.05    95.19     77.86     77.86   223.73    377.00    6.14   False
   95.10    95.24     55.17     55.17   223.77    332.00    5.76   False
   95.15    95.29     40.39     40.39   223.81    297.00    5.45   False
   95.20    95.34     31.11     31.11   223.86    282.00    5.31   False
   95.25    95.39     25.51     25.51   223.90    276.00    5.25   False
   95.30    95.44     22.21     22.21   223.95    264.00    5.14   False
   95.35    95.49     20.28     20.28   223.99    261.00    5.11   False
   95.40    95.54     19.16     19.16   224.03    266.00    5.16   False
   95.45    95.59     18.62     18.62   224.08    261.00    5.11   False
   95.50    95.64     18.60     18.60   224.12    253.00    5.03   False
   95.55    95.69     19.26     19.26   224.17    258.00    5.08   False
   95.60    95.74     20.97     20.97   224.21    262.00    5.12   False
   95.65    95.79     24.46     24.46   224.25    260.00    5.10   False
   95.70    95.84     30.92     30.92   224.30    283.00    5.32   False
   95.75    95.89     42.05     42.05   224.34    307.00    5.54   False
   95.80    95.94     59.76     59.76   224.39    344.00    5.87   False
   95.85    95.99     85.42     85.42   224.43    402.00    6.34   False
   95.90    96.04    118.63    118.63   224.48    453.00    6.73   False
   95.95    96.09    156.04    156.04   224.52    529.00    7.27   False
   96.00    96.14    191.13    191.13   224.56    604.00    7.77   False
   96.05    96.19    215.39    215.39   224.61    661.00    8.13   False
   96.10    96.24    220.98    220.98   224.65    672.00    8.20   False
   96.15    96.29    204.92    204.92   224.70    629.00    7.93   False
   96.20    96.34    172.47    172.47   224.74    588.00    7.67   False
   96.25    96.39    134.27    134.27   224.78    510.00    7.14   False
   96.30    96.44     99.24     99.24   224.83    440.00    6.63   False
   96.35    96.49     71.43     71.43   224.87    377.00    6.14   False
   96.40    96.54     51.12     51.12   224.92    330.00    5.74   False
   96.45    96.59     37.01     37.01   224.96    301.00    5.49   False
   96.50    96.64     27.52     27.52   225.00    280.00    5.29   False
   96.55    96.69     21.36     21.36   225.05    269.00    5.19   False
   96.60    96.74     17.53     17.53   225.09    258.00    5.08   False
   96.65    96.79     15.28     15.28   225.14    252.00    5.02   False
   96.70    96.84     14.04     14.04   225.18    251.00    5.01   False
   96.75    96.89     13.42     13.42   225.22    252.00    5.02   False
   96.80    96.94     13.21     13.21   225.27    256.00    5.06   False
   96.85    96.99     13.32     13.32   225.31    253.00    5.03   False
   96.90    97.04     13.75     13.75   225.36    253.00    5.03   False
   96.95    97.09     14.59     14.59   225.40    253.00    5.03   False
   97.00    97.14     16.07     16.07   225.44    262.00    5.12   False
   97.05    97.19     18.65     18.65   225.49    265.00    5.15   False
   97.10    97.24     23.19     23.19   225.53    284.00    5.33   False
   97.15    97.29     31.12     31.12   225.58    291.00    5.39   False
   97.20    97.34     44.58     44.58   225.62    323.00    5.68   False
   97.25    97.39     66.07     66.07   225.66    374.00    6.12   False
   97.30    97.44     97.57     97.57   225.71    431.00    6.57   False
   97.35    97.49    138.95    138.95   225.75    511.00    7.15   False
   97.40    97.54    186.39    186.39   225.80    602.00    7.76   False
   97.45    97.59    231.83    231.83   225.84    678.00    8.23   False
   97.50    97.64    264.35    264.35   225.88    743.00    8.62   False
   97.55    97.69    273.51    273.51   225.93    756.00    8.69   False
   97.60    97.74    254.87    254.87   225.97    717.00    8.47   False
   97.65    97.79    214.70    214.70   226.02    657.00    8.11   False
   97.70    97.84    166.67    166.67   226.06    581.00    7.62   False
   97.75    97.89    122.56    122.56   226.10    490.00    7.00   False
   97.80    97.94     87.79     87.79   226.15    418.00    6.47   False
   97.85    97.99     62.81     62.81   226.19    364.00    6.03   False
   97.90    98.04     45.91     45.91   226.24    335.00    5.79   False
   97.95    98.09     35.04     35.04   226.28    306.00    5.53   False
   98.00    98.14     28.41     28.41   226.32    290.00    5.39   False
   98.05    98.19     24.55     24.55   226.37    286.00    5.35   False
   98.10    98.24     22.20     22.20   226.41    283.00    5.32   False
   98.15    98.29     20.43     20.43   226.46    283.00    5.32   False
   98.20    98.34     18.68     18.68   226.50    274.00    5.23   False
   98.25    98.39     16.92     16.92   226.54    262.00    5.12   False
   98.30    98.44     15.40     15.40   226.59    266.00    5.16   False
   98.35    98.49     14.44     14.44   226.63    261.00    5.11   False
   98.40    98.54     14.31     14.31   226.68    261.00    5.11   False
   98.45    98.59     15.28     15.28   226.72    264.00    5.14   False
   98.50    98.64     17.68     17.68   226.77    269.00    5.19   False
   98.55    98.69     21.79     21.79   226.81    278.00    5.27   False
   98.60    98.74     27.61     27.61   226.85    288.00    5.37   False
   98.65    98.79     34.62     34.62   226.90    306.00    5.53   False
   98.70    98.84     41.68     41.68   226.94    319.00    5.65   False
   98.75    98.89     47.15     47.15   226.99    330.00    5.74   False
   98.80    98.94     49.39     49.39   227.03    343.00    5.86   False
   98.85    98.99     47.58     47.58   227.07    341.00    5.84   False
   98.90    99.04     42.57     42.57   227.12    325.00    5.70   False
   98.95    99.09     36.60     36.60   227.16    318.00    5.64   False
   99.00    99.14     31.97     31.97   227.21    298.00    5.46   False
   99.05    99.19     30.31     30.31   227.25    299.00    5.47   False
   99.10    99.24     32.82     32.82   227.29    288.00    5.37   False
   99.15    99.29     40.59     40.59   227.34    309.00    5.56   False
   99.20    99.34     54.58     54.58   227.38    344.00    5.87   False
   99.25    99.39     74.86     74.86   227.43    382.00    6.18   False
   99.30    99.44     99.76     99.76   227.47    422.00    6.50   False
   99.35    99.49    125.28    125.28   227.51    470.00    6.86   False
   99.40    99.54    145.60    145.60   227.56    512.00    7.16   False
   99.45    99.59    154.63    154.63   227.60    514.00    7.17   False
   99.50    99.64    148.91    148.91   227.65    515.00    7.18   False
   99.55    99.69    130.61    130.61   227.69    488.00    6.99   False
   99.60    99.74    106.93    106.93   227.73    440.00    6.63   False
   99.65    99.79     84.97     84.97   227.78    396.00    6.29   False
   99.70    99.84     68.12     68.12   227.82    366.00    6.05   False
   99.75    99.89     56.37     56.37   227.87    332.00    5.76   False
   99.80    99.94     48.14     48.14   227.91    311.00    5.58   False
   99.85    99.99     41.84     41.84   227.95    305.00    5.52   False
   99.90   100.04     36.87     36.87   228.00    300.00    5.48   False
   99.95   100.09     33.73     33.73   228.04    293.00    5.41   False
  100.00   100.14     33.35     33.35   228.09    286.00    5.35   False
  100.05   100.19     36.26     36.26   228.13    306.00    5.53   False
  100.10   100.24     42.15     42.15   228.17    313.00    5.59   False
  100.15   100.29     49.76     49.76   228.22    317.00    5.63   False
  100.20   100.34     57.01     57.01   228.26    327.00    5.72   False
  100.25   100.39     61.45     61.45   228.31    343.00    5.86   False
  100.30   100.44     61.05     61.05   228.35    330.00    5.74   False
  100.35   100.49     55.43     55.43   228.39    320.00    5.66   False
  100.40   100.54     46.42     46.42   228.44    307.00    5.54   False
  100.45   100.59     36.84     36.84   228.48    298.00    5.46   False
  100.50   100.64     28.74     28.74   228.53    282.00    5.31   False
  100.55   100.69     22.85     22.85   228.57    274.00    5.23   False
  100.60   100.74     19.12     19.12   228.61    266.00    5.16   False
  100.65   100.79     17.39     17.39   228.66    274.00    5.23   False
  100.70   100.84     17.64     17.64   228.70    271.00    5.21   False
  100.75   100.89     20.18     20.18   228.75    274.00    5.23   False
  100.80   100.94     25.44     25.44   228.79    290.00    5.39   False
  100.85   100.99     33.70     33.70   228.84    302.00    5.50   False
  100.90   101.04     44.64     44.64   228.88    321.00    5.67   False
  100.95   101.09     56.91     56.91   228.92    350.00    5.92   False
  101.00   101.14     68.11     68.11   228.97    367.00    6.06   False
  101.05   101.19     75.24     75.24   229.01    386.00    6.21   False
  101.10   101.24     75.77     75.77   229.06    394.00    6.28   False
  101.15   101.29     69.19     69.19   229.10    370.00    6.08   False
  101.20   101.34     57.90     57.90   229.14    356.00    5.97   False
  101.25   101.39     45.73     45.73   229.19    332.00    5.76   False
  101.30   101.44     35.44     35.44   229.23    310.00    5.57   False
  101.35   101.49     28.06     28.06   229.28    288.00    5.37   False
  101.40   101.54     23.49     23.49   229.32    279.00    5.28   False
  101.45   101.59     21.18     21.18   229.36    281.00    5.30   False
  101.50   101.64     20.51     20.51   229.41    274.00    5.23   False
  101.55   101.69     20.83     20.83   229.45    284.00    5.33   False
  101.60   101.74     21.47     21.47   229.50    280.00    5.29   False
  101.65   101.79     21.81     21.81   229.54    270.00    5.20   False
  101.70   101.84     21.41     21.41   229.58    278.00    5.27   False
  101.75   101.89     20.29     20.29   229.63    269.00    5.19   False
  101.80   101.94     18.90     18.90   229.67    273.00    5.22   False
  101.85   101.99     17.71     17.71   229.72    268.00    5.18   False
  101.90   102.04     17.01     17.01   229.76    267.00    5.17   False
  101.95   102.09     16.86     16.86   229.80    265.00    5.15   False
  102.00   102.14     17.24     17.24   229.85    257.00    5.34   False
  102.05   102.19     18.14     18.14   229.89    258.00    5.35   False
  102.10   102.24     19.62     19.62   229.94    267.00    5.45   False
  102.15   102.29     21.85     21.85   229.98    267.00    5.45   False
  102.20   102.34     25.20     25.20   230.02    277.00    5.55   False
  102.25   102.39     30.23     30.23   230.07    287.00    5.65   False
  102.30   102.44     37.72     37.72   230.11    302.00    5.79   False
  102.35   102.49     48.54     48.54   230.16    332.00    6.07   False
  102.40   102.54     63.38     63.38   230.20    360.00    6.32   False
  102.45   102.59     82.64     82.64   230.24    411.00    6.76   False
  102.50   102.64    106.55    106.55   230.29    457.00    7.13   False
  102.55   102.69    136.10    136.10   230.33    524.00    7.63   False
  102.60   102.74    174.33    174.33   230.38    608.00    8.22   False
  102.65   102.79    227.67    227.67   230.42    699.00    8.81   False
  102.70   102.84    305.45    305.45   230.46    861.00    9.78   False
  102.75   102.89    415.37    415.37   230.51   1096.00   11.04   False
  102.80   102.94    555.24    555.24   230.55   1377.00   12.37   False
  102.85   102.99    706.93    706.93   230.60   1685.00   13.68   False
  102.90   103.04    837.36    837.36   230.64   1901.00   14.53   False
  102.95   103.09    907.32    907.32   230.68   2069.00   15.16   False
  103.00   103.14    887.76    887.76   230.73   2016.00   14.97   False
  103.05   103.19    780.67    780.67   230.77   1800.00   14.14   False
  103.10   103.24    624.76    624.76   230.82   1500.00   12.91   False
  103.15   103.29    468.83    468.83   230.86   1181.00   11.46   False
  103.20   103.34    343.09    343.09   230.90    937.00   10.20   False
  103.25   103.39    255.36    255.36   230.95    728.00    8.99   False
  103.30   103.44    200.71    200.71   230.99    629.00    8.36   False
  103.35   103.49    170.18    170.18   231.04    576.00    8.00   False
  103.40   103.54    154.84    154.84   231.08    556.00    7.86   False
  103.45   103.59    146.83    146.83   231.13    535.00    7.71   False
  103.50   103.64    139.57    139.57   231.17    519.00    7.59   False
  103.55   103.69    128.91    128.91   231.21    486.00    7.35   False
  103.60   103.74    114.47    114.47   231.26    465.00    7.19   False
  103.65   103.79     98.69     98.69   231.30    429.00    6.90   False
  103.70   103.84     83.84     83.84   231.35    385.00    6.54   False
  103.75   103.89     70.57     70.57   231.39    361.00    6.33   False
  103.80   103.94     58.59     58.59   231.43    342.00    6.16   False
  103.85   103.99     47.79     47.79   231.48    312.00    5.89   False
  103.90   104.04     38.52     38.52   231.52    293.00    5.71   False
  103.95   104.09     31.15     31.15   231.57    279.00    5.57   False
  104.00   104.14     25.66     25.66   231.61    277.00    5.55   False
  104.05   104.19     21.75     21.75   231.65    265.00    5.43   False
  104.10   104.24     19.01     19.01   231.70    257.00    5.34   False
  104.15   104.29     17.14     17.14   231.74    256.00    5.33   False
  104.20   104.34     15.93     15.93   231.79    250.00    5.27   False
  104.25   104.39     15.33     15.33   231.83    260.00    5.37   False
  104.30   104.44     15.42     15.42   231.87    261.00    5.39   False
  104.35   104.49     16.40     16.40   231.92    258.00    5.35   False
  104.40   104.54     18.60     18.60   231.96    263.00    5.41   False
  104.45   104.59     22.35     22.35   232.01    268.00    5.46   False
  104.50   104.64     27.88     27.88   232.05    284.00    5.62   False
  104.55   104.69     35.01     35.01   232.09    306.00    5.83   False
  104.60   104.74     42.97     42.97   232.14    325.00    6.01   False
  104.65   104.79     50.40     50.40   232.18    337.00    6.12   False
  104.70   104.84     55.65     55.65   232.23    337.00    6.12   False
  104.75   104.89     57.45     57.45   232.27    344.00    6.18   False
  104.80   104.94     55.54     55.54   232.31    340.00    6.15   False
  104.85   104.99     51.01     51.01   232.36    337.00    6.12   False
  104.90   105.04     45.79     45.79   232.40    328.00    6.04   False
  104.95   105.09     41.38     41.38   232.45    321.00    5.97   False
  105.00   105.14     38.01     38.01   232.49    306.00    5.83   False
  105.05   105.19     34.92     34.92   232.53    295.00    5.73   False
  105.10   105.24     31.21     31.21   232.58    289.00    5.67   False
  105.15   105.29     26.63     26.63   232.62    281.00    5.59   False
  105.20   105.34     21.81     21.81   232.67    267.00    5.45   False
  105.25   105.39     17.60     17.60   232.71    266.00    5.44   False
  105.30   105.44     14.50     14.50   232.75    270.00    5.48   False
  105.35   105.49     12.53     12.53   232.80    263.00    5.41   False
  105.40   105.54     11.46     11.46   232.84    256.00    5.33   False
  105.45   105.59     10.99     10.99   232.89    266.00    5.44   False
  105.50   105.64     10.80     10.80   232.93    264.00    5.42   False
  105.55   105.69     10.63     10.63   232.97    259.00    5.36   False
  105.60   105.74     10.25     10.25   233.02    261.00    5.39   False
  105.65   105.79      9.59      9.59   233.06    261.00    5.39   False
  105.70   105.84      8.73      8.73   233.11    258.00    5.35   False
  105.75   105.89      7.88      7.88   233.15    253.00    5.30   False
  105.80   105.94      7.17      7.17   233.19    248.00    5.25   False
  105.85   105.99      6.67      6.67   233.24    244.00    5.21   False
  105.90   106.04      6.34      6.34   233.28    249.00    5.26   False
  105.95   106.09      6.17      6.17   233.33    251.00    5.28   False
  106.00   106.14      6.14      6.14   233.37    245.00    5.22   False
  106.05   106.19      6.25      6.25   233.42    245.00    5.22   False
  106.10   106.24      6.50      6.50   233.46    247.00    5.24   False
  106.15   106.29      6.89      6.89   233.50    247.00    5.24   False
  106.20   106.34      7.41      7.41   233.55    254.00    5.31   False
  106.25   106.39      7.98      7.98   233.59    259.00    5.36   False
  106.30   106.44      8.54      8.54   233.64    250.00    5.27   False
  106.35   106.49      8.98      8.98   233.68    251.00    5.28   False
  106.40   106.54      9.26      9.26   233.72    258.00    5.35   False
  106.45   106.59      9.43      9.43   233.77    252.00    5.29   False
  106.50   106.64      9.66      9.66   233.81    255.00    5.32   False
  106.55   106.69     10.16     10.16   233.86    259.00    5.36   False
  106.60   106.74     11.15     11.15   233.90    256.00    5.33   False
  106.65   106.79     12.97     12.97   233.94    264.00    5.42   False
  106.70   106.84     16.16     16.16   233.99    268.00    5.46   False
  106.75   106.89     21.61     21.61   234.03    281.00    5.59   False
  106.80   106.94     30.63     30.63   234.08    303.00    5.80   False
  106.85   106.99     44.67     44.67   234.12    331.00    6.06   False
  106.90   107.04     64.73     64.73   234.16    371.00    6.42   False
  106.95   107.09     90.40     90.40   234.21    420.00    6.83   False
  107.00   107.14    119.00    119.00   234.25    484.00    7.33   False
  107.05   107.19    145.48    145.48   234.30    532.00    7.69   False
  107.10   107.24    163.51    163.51   234.34    576.00    8.00   False
  107.15   107.29    167.86    167.86   234.38    582.00    8.04   False
  107.20   107.34    157.74    157.74   234.43    563.00    7.91   False
  107.25   107.39    138.77    138.77   234.47    527.00    7.65   False
  107.30   107.44    119.46    119.46   234.52    490.00    7.38   False
  107.35   107.49    105.30    105.30   234.56    465.00    7.19   False
  107.40   107.54     96.65     96.65   234.60    467.00    7.20   False
  107.45   107.59     90.53     90.53   234.65    449.00    7.06   False
  107.50   107.64     83.32     83.32   234.69    416.00    6.80   False
  107.55   107.69     73.03     73.03   234.74    393.00    6.61   False
  107.60   107.74     60.51     60.51   234.78    366.00    6.38   False
  107.65   107.79     48.49     48.49   234.82    331.00    6.06   False
  107.70   107.84     39.28     39.28   234.87    316.00    5.93   False
  107.75   107.89     33.78     33.78   234.91    297.00    5.74   False
  107.80   107.94     31.79     31.79   234.96    294.00    5.72   False
  107.85   107.99     32.66     32.66   235.00    292.00    5.70   False
  107.90   108.04     35.56     35.56   235.04    286.00    5.64   False
  107.95   108.09     39.70     39.70   235.09    295.00    5.73   False
  108.00   108.14     44.57     44.57   235.13    306.00    6.18   False
  108.05   108.19     50.18     50.18   235.18    315.00    6.28   False
  108.10   108.24     57.45     57.45   235.22    334.00    6.46   False
  108.15   108.29     67.97     67.97   235.26    373.00    6.83   False
  108.20   108.34     82.73     82.73   235.31    406.00    7.12   False
  108.25   108.39    100.62    100.62   235.35    447.00    7.47   False
  108.30   108.44    118.01    118.01   235.40    499.00    7.90   False
  108.35   108.49    129.67    129.67   235.44    507.00    7.96   False
  108.40   108.54    130.73    130.73   235.49    506.00    7.95   False
  108.45   108.59    119.41    119.41   235.53    488.00    7.81   False
  108.50   108.64     99.00     99.00   235.57    432.00    7.35   False
  108.55   108.69     76.05     76.05   235.62    391.00    6.99   False
  108.60   108.74     55.91     55.91   235.66    342.00    6.54   False
  108.65   108.79     40.67     40.67   235.71    315.00    6.28   False
  108.70   108.84     30.02     30.02   235.75    292.00    6.04   False
  108.75   108.89     22.79     22.79   235.79    275.00    5.86   False
  108.80   108.94     17.87     17.87   235.84    274.00    5.85   False
  108.85   108.99     14.51     14.51   235.88    259.00    5.69   False
  108.90   109.04     12.26     12.26   235.93    250.00    5.59   False
  108.95   109.09     10.78     10.78   235.97    258.00    5.68   False
  109.00   109.14      9.84      9.84   236.01    252.00    5.61   False
  109.05   109.19      9.24      9.24   236.06    255.00    5.65   False
  109.10   109.24      8.85      8.85   236.10    254.00    5.63   False
  109.15   109.29      8.58      8.58   236.15    253.00    5.62   False
  109.20   109.34      8.41      8.41   236.19    254.00    5.63   False
  109.25   109.39      8.32      8.32   236.23    252.00    5.61   False
  109.30   109.44      8.30      8.30   236.28    257.00    5.67   False
  109.35   109.49      8.35      8.35   236.32    250.00    5.59   False
  109.40   109.54      8.48      8.48   236.37    255.00    5.65   False
  109.45   109.59      8.69      8.69   236.41    251.00    5.60   False
  109.50   109.64      9.00      9.00   236.45    254.00    5.63   False
  109.55   109.69      9.42      9.42   236.50    260.00    5.70   False
  109.60   109.74     10.00     10.00   236.54    249.00    5.58   False
  109.65   109.79     10.80     10.80   236.59    253.00    5.62   False
  109.70   109.84     11.93     11.93   236.63    254.00    5.63   False
  109.75   109.89     13.59     13.59   236.67    259.00    5.69   False
  109.80   109.94     16.07     16.07   236.72    268.00    5.79   False
  109.85   109.99     19.83     19.83   236.76    270.00    5.81   False
  109.90   110.04     25.44     25.44   236.81    284.00    5.96   False
  109.95   110.09     33.63     33.63   236.85    305.00    6.17   False
  110.00   110.14     45.31     45.31   236.89    322.00    6.34   False
  110.05   110.19     61.62     61.62   236.94    364.00    6.75   False
  110.10   110.24     83.87     83.87   236.98    417.00    7.22   False
  110.15   110.29    113.15    113.15   237.03    470.00    7.66   False
  110.20   110.34    149.47    149.47   237.07    573.00    8.46   False
  110.25   110.39    190.75    190.75   237.11    678.00    9.21   False
  110.30   110.44    231.74    231.74   237.16    771.00    9.82   False
  110.35   110.49    263.90    263.90   237.20    847.00   10.29   False
  110.40   110.54    277.44    277.44   237.25    854.00   10.33   False
  110.45   110.59    265.88    265.88   237.29    794.00    9.96   False
  110.50   110.64    231.71    231.71   237.33    720.00    9.49   False
  110.55   110.69    186.92    186.92   237.38    611.00    8.74   False
  110.60   110.74    145.39    145.39   237.42    520.00    8.06   False
  110.65   110.79    115.37    115.37   237.47    463.00    7.61   False
  110.70   110.84     98.57     98.57   237.51    412.00    7.18   False
  110.75   110.89     92.64     92.64   237.55    399.00    7.06   False
  110.80   110.94     93.54     93.54   237.60    416.00    7.21   False
  110.85   110.99     96.77     96.77   237.64    428.00    7.31   False
  110.90   111.04     98.10     98.10   237.69    432.00    7.35   False
  110.95   111.09     94.41     94.41   237.73    420.00    7.25   False
  111.00   111.14     84.88     84.88   237.78    402.00    7.09   False
  111.05   111.19     71.78     71.78   237.82    364.00    6.75   False
  111.10   111.24     59.00     59.00   237.86    348.00    6.60   False
  111.15   111.29     49.67     49.67   237.91    334.00    6.46   False
  111.20   111.34     45.33     45.33   237.95    321.00    6.33   False
  111.25   111.39     46.45     46.45   238.00    330.00    6.42   False
  111.30   111.44     53.00     53.00   238.04    342.00    6.54   False
  111.35   111.49     64.41     64.41   238.08    380.00    6.89   False
  111.40   111.54     79.15     79.15   238.13    385.00    6.94   False
  111.45   111.59     94.43     94.43   238.17    420.00    7.25   False
  111.50   111.64    106.37    106.37   238.22    441.00    7.42   False
  111.55   111.69    111.03    111.03   238.26    465.00    7.62   False
  111.60   111.74    106.07    106.07   238.30    444.00    7.45   False
  111.65   111.79     92.63     92.63   238.35    406.00    7.12   False
  111.70   111.84     75.19     75.19   238.39    383.00    6.92   False
  111.75   111.89     58.68     58.68   238.44    345.00    6.57   False
  111.80   111.94     45.86     45.86   238.48    332.00    6.44   False
  111.85   111.99     37.27     37.27   238.52    321.00    6.33   False
  111.90   112.04     32.36     32.36   238.57    308.00    6.20   False
  111.95   112.09     30.54     30.54   238.61    292.00    6.04   False
  112.00   112.14     31.79     31.79   238.66    303.00    6.15   False
  112.05   112.19     36.84     36.84   238.70    314.00    6.26   False
  112.10   112.24     47.14     47.14   238.74    333.00    6.45   False
  112.15   112.29     64.65     64.65   238.79    379.00    6.88   False
  112.20   112.34     91.11     91.11   238.83    438.00    7.40   False
  112.25   112.39    126.84    126.84   238.88    505.00    7.95   False
  112.30   112.44    169.37    169.37   238.92    594.00    8.62   False
  112.35   112.49    212.61    212.61   238.96    659.00    9.08   False
  112.40   112.54    247.43    247.43   239.01    717.00    9.47   False
  112.45   112.59    264.00    264.00   239.05    738.00    9.60   False
  112.50   112.64    255.82    255.82   239.10    710.00    9.42   False
  112.55   112.69    224.49    224.49   239.14    642.00    8.96   False
  112.60   112.74    180.56    180.56   239.18    547.00    8.27   False
  112.65   112.79    136.99    136.99   239.23    492.00    7.84   False
  112.70   112.84    101.99    101.99   239.27    421.00    7.25   False
  112.75   112.89     77.81     77.81   239.32    386.00    6.95   False
  112.80   112.94     63.41     63.41   239.36    344.00    6.56   False
  112.85   112.99     57.23     57.23   239.40    337.00    6.49   False
  112.90   113.04     58.68     58.68   239.45    350.00    6.61   False
  112.95   113.09     68.31     68.31   239.49    364.00    6.75   False
  113.00   113.14     87.08     87.08   239.54    415.00    7.20   False
  113.05   113.19    115.05    115.05   239.58    506.00    7.95   False
  113.10   113.24    150.08    150.08   239.62    586.00    8.56   False
  113.15   113.29    186.94    186.94   239.67    674.00    9.18   False
  113.20   113.34    217.80    217.80   239.71    750.00    9.68   False
  113.25   113.39    233.93    233.93   239.76    787.00    9.92   False
  113.30   113.44    228.99    228.99   239.80    753.00    9.70   False
  113.35   113.49    203.16    203.16   239.84    682.00    9.23   False
  113.40   113.54    164.58    164.58   239.89    597.00    8.64   False
  113.45   113.59    124.59    124.59   239.93    499.00    7.90   False
  113.50   113.64     91.04     91.04   239.98    417.00    7.22   False
  113.55   113.69     66.38     66.38   240.02    362.00    6.73   False
  113.60   113.74     49.56     49.56   240.07    340.00    6.52   False
  113.65   113.79     38.43     38.43   240.11    302.00    6.14   False
  113.70   113.84     31.17     31.17   240.15    286.00    5.98   False
  113.75   113.89     26.73     26.73   240.20    280.00    5.92   False
  113.80   113.94     24.67     24.67   240.24    283.00    5.95   False
  113.85   113.99     24.82     24.82   240.29    276.00    5.87   False
  113.90   114.04     27.04     27.04   240.33    282.00    5.94   False
  113.95   114.09     30.97     30.97   240.37    284.00    5.96   False
  114.00   114.14     35.91     35.91   240.42    295.00    6.49   False
  114.05   114.19     40.76     40.76   240.46    310.00    6.65   False
  114.10   114.24     44.19     44.19   240.51    319.00    6.75   False
  114.15   114.29     44.95     44.95   240.55    321.00    6.77   False
  114.20   114.34     42.44     42.44   240.59    304.00    6.59   False
  114.25   114.39     37.23     37.23   240.64    298.00    6.52   False
  114.30   114.44     30.89     30.89   240.68    293.00    6.47   False
  114.35   114.49     25.02     25.02   240.73    283.00    6.36   False
  114.40   114.54     20.48     20.48   240.77    277.00    6.29   False
  114.45   114.59     17.48     17.48   240.81    269.00    6.20   False
  114.50   114.64     15.92     15.92   240.86    265.00    6.15   False
  114.55   114.69     15.71     15.71   240.90    277.00    6.29   False
  114.60   114.74     16.91     16.91   240.95    283.00    6.36   False
  114.65   114.79     19.70     19.70   240.99    283.00    6.36   False
  114.70   114.84     24.23     24.23   241.03    293.00    6.47   False
  114.75   114.89     30.35     30.35   241.08    303.00    6.58   False
  114.80   114.94     37.45     37.45   241.12    320.00    6.76   False
  114.85   114.99     44.29     44.29   241.17    316.00    6.72   False
  114.90   115.04     49.31     49.31   241.21    331.00    6.88   False
  114.95   115.09     50.97     50.97   241.25    346.00    7.03   False
  115.00   115.14     48.47     48.47   241.30    327.00    6.83   False
  115.05   115.19     42.42     42.42   241.34    328.00    6.85   False
  115.10   115.24     34.73     34.73   241.39    306.00    6.61   False
  115.15   115.29     27.40     27.40   241.43    291.00    6.45   False
  115.20   115.34     21.60     21.60   241.47    286.00    6.39   False
  115.25   115.39     17.51     17.51   241.52    278.00    6.30   False
  115.30   115.44     14.82     14.82   241.56    273.00    6.25   False
  115.35   115.49     13.11     13.11   241.61    267.00    6.18   False
  115.40   115.54     12.03     12.03   241.65    272.00    6.23   False
  115.45   115.59     11.39     11.39   241.69    257.00    6.06   False
  115.50   115.64     11.08     11.08   241.74    260.00    6.09   False
  115.55   115.69     11.05     11.05   241.78    265.00    6.15   False
  115.60   115.74     11.25     11.25   241.83    264.00    6.14   False
  115.65   115.79     11.66     11.66   241.87    272.00    6.23   False
  115.70   115.84     12.28     12.28   241.91    270.00    6.21   False
  115.75   115.89     13.17     13.17   241.96    268.00    6.19   False
  115.80   115.94     14.43     14.43   242.00    269.00    6.20   False
  115.85   115.99     16.24     16.24   242.05    287.00    6.40   False
  115.90   116.04     18.95     18.95   242.09    292.00    6.46   False
  115.95   116.09     23.08     23.08   242.14    295.00    6.49   False
  116.00   116.14     29.44     29.44   242.18    317.00    6.73   False
  116.05   116.19     39.15     39.15   242.22    335.00    6.92   False
  116.10   116.24     53.66     53.66   242.27    364.00    7.21   False
  116.15   116.29     74.56     74.56   242.31    410.00    7.65   False
  116.20   116.34    103.38    103.38   242.36    477.00    8.25   False
  116.25   116.39    140.99    140.99   242.40    556.00    8.91   False
  116.30   116.44    186.77    186.77   242.44    642.00    9.58   False
  116.35   116.49    237.71    237.71   242.49    755.00   10.39   False
  116.40   116.54    288.01    288.01   242.53    864.00   11.11   False
  116.45   116.59    329.69    329.69   242.58    946.00   11.63   False
  116.50   116.64    353.95    353.95   242.62    970.00   11.77   False
  116.55   116.69    353.12    353.12   242.66    941.00   11.59   False
  116.60   116.74    324.43    324.43   242.71    870.00   11.15   False
  116.65   116.79    273.98    273.98   242.75    759.00   10.41   False
  116.70   116.84    215.39    215.39   242.80    647.00    9.61   False
  116.75   116.89    162.12    162.12   242.84    540.00    8.78   False
  116.80   116.94    121.61    121.61   242.88    468.00    8.18   False
  116.85   116.99     95.27     95.27   242.93    418.00    7.73   False
  116.90   117.04     81.37     81.37   242.97    379.00    7.36   False
  116.95   117.09     77.56     77.56   243.02    381.00    7.38   False
  117.00   117.14     81.86     81.86   243.06    405.00    7.61   False
  117.05   117.19     92.44     92.44   243.10    446.00    7.98   False
  117.10   117.24    106.87    106.87   243.15    476.00    8.25   False
  117.15   117.29    121.66    121.66   243.19    523.00    8.64   False
  117.20   117.34    132.54    132.54   243.24    561.00    8.95   False
  117.25   117.39    135.45    135.45   243.28    555.00    8.90   False
  117.30   117.44    128.15    128.15   243.32    529.00    8.69   False
  117.35   117.49    111.80    111.80   243.37    485.00    8.32   False
  117.40   117.54     90.79     90.79   243.41    436.00    7.89   False
  117.45   117.59     70.19     70.19   243.46    398.00    7.54   False
  117.50   117.64     53.22     53.22   243.50    355.00    7.12   False
  117.55   117.69     40.76     40.76   243.54    322.00    6.78   False
  117.60   117.74     32.18     32.18   243.59    304.00    6.59   False
  117.65   117.79     26.38     26.38   243.63    285.00    6.38   False
  117.70   117.84     22.39     22.39   243.68    270.00    6.21   False
  117.75   117.89     19.59     19.59   243.72    278.00    6.30   False
  117.80   117.94     17.64     17.64   243.76    260.00    6.09   False
  117.85   117.99     16.39     16.39   243.81    268.00    6.19   False
  117.90   118.04     15.73     15.73   243.85    264.00    6.14   False
  117.95   118.09     15.63     15.63   243.90    265.00    6.15   False
  118.00   118.14     16.13     16.13   243.94    263.00    6.13   False
  118.05   118.19     17.41     17.41   243.98    267.00    6.18   False
  118.10   118.24     19.83     19.83   244.03    286.00    6.39   False
  118.15   118.29     24.01     24.01   244.07    293.00    6.47   False
  118.20   118.34     30.83     30.83   244.12    291.00    6.45   False
  118.25   118.39     41.30     41.30   244.16    319.00    6.75   False
  118.30   118.44     56.27     56.27   244.20    366.00    7.23   False
  118.35   118.49     75.85     75.85   244.25    411.00    7.66   False
  118.40   118.54     98.89     98.89   244.29    461.00    8.12   False
  118.45   118.59    122.59    122.59   244.34    489.00    8.36   False
  118.50   118.64    142.79    142.79   244.38    521.00    8.63   False
  118.55   118.69    154.76    154.76   244.43    555.00    8.90   False
  118.60   118.74    154.84    154.84   244.47    550.00    8.86   False
  118.65   118.79    142.33    142.33   244.51    511.00    8.54   False
  118.70   118.84    120.75    120.75   244.56    486.00    8.33   False
  118.75   118.89     96.44     96.44   244.60    436.00    7.89   False
  118.80   118.94     75.20     75.20   244.65    392.00    7.48   False
  118.85   118.99     60.15     60.15   244.69    368.00    7.25   False
  118.90   119.04     52.01     52.01   244.73    330.00    6.87   False
  118.95   119.09     50.23     50.23   244.78    328.00    6.85   False
  119.00   119.14     53.84     53.84   244.82    343.00    7.00   False
  119.05   119.19     61.73     61.73   244.87    371.00    7.28   False
  119.10   119.24     72.42     72.42   244.91    394.00    7.50   False
  119.15   119.29     83.82     83.82   244.95    441.00    7.94   False
  119.20   119.34     93.28     93.28   245.00    468.00    8.18   False
  119.25   119.39     98.01     98.01   245.04    469.00    8.19   False
  119.30   119.44     96.01     96.01   245.09    456.00    8.07   False
  119.35   119.49     87.08     87.08   245.13    416.00    7.71   False
  119.40   119.54     73.43     73.43   245.17    394.00    7.50   False
  119.45   119.59     58.57     58.57   245.22    361.00    7.18   False
  119.50   119.64     45.44     45.44   245.26    330.00    6.87   False
  119.55   119.69     35.42     35.42   245.31    312.00    6.68   False
  119.60   119.74     28.51     28.51   245.35    293.00    6.47   False
  119.65   119.79     24.06     24.06   245.39    285.00    6.38   False
  119.70   119.84     21.33     21.33   245.44    286.00    6.39   False
  119.75   119.89     19.84     19.84   245.48    275.00    6.27   False
  119.80   119.94     19.37     19.37   245.53    274.00    6.26   False
  119.85   119.99     19.99     19.99   245.57    281.00    6.34   False
  119.90   120.04     21.96     21.96   245.61    279.00    6.31   False
  119.95   120.09     25.72     25.72   245.66    298.00    6.52   False
  120.00   120.14     31.88     31.88   245.70    312.00    7.21   False
  120.05   120.19     41.09     41.09   245.67    331.00    7.43   False
  120.10   120.24     53.96     53.96   245.64    375.00    7.91   False
  120.15   120.29     70.74     70.74   245.61    406.00    8.23   False
  120.20   120.34     90.98     90.98   245.58    452.00    8.68   False
  120.25   120.39    113.22    113.22   245.55    506.00    9.18   False
  120.30   120.44    134.87    134.87   245.52    546.00    9.54   False
  120.35   120.49    152.53    152.53   245.49    568.00    9.73   False
  120.40   120.54    162.82    162.82   245.46    589.00    9.91   False
  120.45   120.59    163.21    163.21   245.43    588.00    9.90   False
  120.50   120.64    152.91    152.91   245.40    537.00    9.46   False
  120.55   120.69    133.77    133.77   245.38    498.00    9.11   False
  120.60   120.74    110.30    110.30   245.35    463.00    8.78   False
  120.65   120.79     87.78     87.78   245.32    402.00    8.19   False
  120.70   120.84     69.93     69.93   245.29    386.00    8.02   False
  120.75   120.89     58.18     58.18   245.26    361.00    7.76   False
  120.80   120.94     52.26     52.26   245.23    350.00    7.64   False
  120.85   120.99     51.15     51.15   245.20    330.00    7.42   False
  120.90   121.04     53.76     53.76   245.17    338.00    7.51   False
  120.95   121.09     59.28     59.28   245.14    359.00    7.74   False
  121.00   121.14     67.37     67.37   245.11    364.00    7.79   False
  121.05   121.19     78.20     78.20   245.08    385.00    8.01   False
  121.10   121.24     92.46     92.46   245.05    436.00    8.52   False
  121.15   121.29    111.19    111.19   245.02    474.00    8.89   False
  121.20   121.34    135.33    135.33   244.99    544.00    9.52   False
  121.25   121.39    164.66    164.66   244.96    647.00   10.38   False
  121.30   121.44    196.77    196.77   244.93    695.00   10.76   False
  121.35   121.49    226.76    226.76   244.90    763.00   11.28   False
  121.40   121.54    248.13    248.13   244.87    802.00   11.56   False
  121.45   121.59    254.64    254.64   244.84    812.00   11.63   False
  121.50   121.64    242.90    242.90   244.81    756.00   11.22   False
  121.55   121.69    214.69    214.69   244.78    669.00   10.56   False
  121.60   121.74    177.12    177.12   244.75    606.00   10.05   False
  121.65   121.79    139.28    139.28   244.72    527.00    9.37   False
  121.70   121.84    108.03    108.03   244.69    452.00    8.68   False
  121.75   121.89     86.46     86.46   244.66    409.00    8.26   False
  121.80   121.94     74.74     74.74   244.63    376.00    7.92   False
  121.85   121.99     71.69     71.69   244.60    368.00    7.83   False
  121.90   122.04     75.89     75.89   244.57    391.00    8.07   False
  121.95   122.09     86.00     86.00   244.54    400.00    8.16   False
  122.00   122.14    100.53    100.53   244.51    444.00    8.60   False
  122.05   122.19    117.51    117.51   244.48    481.00    8.95   False
  122.10   122.24    134.36    134.36   244.45    518.00    9.29   False
  122.15   122.29    148.26    148.26   244.42    556.00    9.63   False
  122.20   122.34    156.91    156.91   244.39    577.00    9.81   False
  122.25   122.39    159.51    159.51   244.36    575.00    9.79   False
  122.30   122.44    157.46    157.46   244.33    557.00    9.63   False
  122.35   122.49    154.03    154.03   244.30    552.00    9.59   False
  122.40   122.54    152.33    152.33   244.28    562.00    9.68   False
  122.45   122.59    153.34    153.34   244.25    592.00    9.93   False
  122.50   122.64    155.33    155.33   244.22    596.00    9.97   False
  122.55   122.69    154.89    154.89   244.19    583.00    9.86   False
  122.60   122.74    148.63    148.63   244.16    552.00    9.59   False
  122.65   122.79    134.93    134.93   244.13    512.00    9.24   False
  122.70   122.84    115.07    115.07   244.10    482.00    8.96   False
  122.75   122.89     92.68     92.68   244.07    439.00    8.55   False
  122.80   122.94     71.67     71.67   244.04    385.00    8.01   False
  122.85   122.99     54.51     54.51   244.01    342.00    7.55   False
  122.90   123.04     41.85     41.85   243.98    316.00    7.26   False
  122.95   123.09     33.10     33.10   243.95    300.00    7.07   False
  123.00   123.14     27.19     27.19   243.92    287.00    6.92   False
  123.05   123.19     23.10     23.10   243.89    279.00    6.82   False
  123.10   123.24     20.12     20.12   243.86    267.00    6.67   False
  123.15   123.29     17.84     17.84   243.83    269.00    6.70   False
  123.20   123.34     16.05     16.05   243.80    269.00    6.70   False
  123.25   123.39     14.67     14.67   243.77    271.00    6.72   False
  123.30   123.44     13.63     13.63   243.74    261.00    6.60   False
  123.35   123.49     12.86     12.86   243.71    261.00    6.60   False
  123.40   123.54     12.30     12.30   243.68    265.00    6.65   False
  123.45   123.59     11.90     11.90   243.65    252.00    6.48   False
  123.50   123.64     11.66     11.66   243.62    260.00    6.58   False
  123.55   123.69     11.55     11.55   243.59    263.00    6.62   False
  123.60   123.74     11.61     11.61   243.56    265.00    6.65   False
  123.65   123.79     11.87     11.87   243.53    260.00    6.58   False
  123.70   123.84     12.37     12.37   243.50    274.00    6.76   False
  123.75   123.89     13.16     13.16   243.47    267.00    6.67   False
  123.80   123.94     14.25     14.25   243.44    271.00    6.72   False
  123.85   123.99     15.61     15.61   243.41    274.00    6.76   False
  123.90   124.04     17.15     17.15   243.38    269.00    6.70   False
  123.95   124.09     18.72     18.72   243.35    264.00    6.63   False
  124.00   124.14     20.13     20.13   243.32    277.00    6.79   False
  124.05   124.19     21.22     21.22   243.29    272.00    6.73   False
  124.10   124.24     21.93     21.93   243.26    277.00    6.79   False
  124.15   124.29     22.37     22.37   243.23    282.00    6.86   False
  124.20   124.34     22.92     22.92   243.20    290.00    6.95   False
  124.25   124.39     24.20     24.20   243.18    293.00    6.99   False
  124.30   124.44     27.00     27.00   243.15    294.00    7.00   False
  124.35   124.49     32.20     32.20   243.12    300.00    7.07   False
  124.40   124.54     40.77     40.77   243.09    325.00    7.36   False
  124.45   124.59     53.68     53.68   243.06    348.00    7.62   False
  124.50   124.64     71.72     71.72   243.03    382.00    7.98   False
  124.55   124.69     95.06     95.06   243.00    412.00    8.29   False
  124.60   124.74    122.88    122.88   242.97    466.00    8.81   False
  124.65   124.79    153.01    153.01   242.94    513.00    9.25   False
  124.70   124.84    182.00    182.00   242.91    562.00    9.68   False
  124.75   124.89    205.55    205.55   242.88    585.00    9.87   False
  124.80   124.94    219.48    219.48   242.85    608.00   10.07   False
  124.85   124.99    220.98    220.98   242.82    619.00   10.16   False
  124.90   125.04    210.02    210.02   242.79    594.00    9.95   False
  124.95   125.09    190.05    190.05   242.76    567.00    9.72   False
  125.00   125.14    166.73    166.73   242.73    526.00    9.36   False
  125.05   125.19    145.44    145.44   242.70    518.00    9.29   False
  125.10   125.24    129.30    129.30   242.67    501.00    9.14   False
  125.15   125.29    118.92    118.92   242.64    480.00    8.94   False
  125.20   125.34    113.20    113.20   242.61    470.00    8.85   False
  125.25   125.39    110.29    110.29   242.58    465.00    8.80   False
  125.30   125.44    108.44    108.44   242.55    469.00    8.84   False
  125.35   125.49    106.65    106.65   242.52    458.00    8.74   False
  125.40   125.54    105.06    105.06   242.49    438.00    8.54   False
  125.45   125.59    104.75    104.75   242.46    448.00    8.64   False
  125.50   125.64    106.91    106.91   242.43    470.00    8.85   False
  125.55   125.69    111.99    111.99   242.40    470.00    8.85   False
  125.60   125.74    119.29    119.29   242.37    500.00    9.13   False
  125.65   125.79    127.06    127.06   242.34    505.00    9.17   False
  125.70   125.84    133.01    133.01   242.31    519.00    9.30   False
  125.75   125.89    134.90    134.90   242.28    517.00    9.28   False
  125.80   125.94    131.31    131.31   242.25    517.00    9.28   False
  125.85   125.99    122.20    122.20   242.22    502.00    9.15   False
  125.90   126.04    108.92    108.92   242.19    460.00    8.76   False
  125.95   126.09     93.49     93.49   242.16    410.00    8.27   False
  126.00   126.14     77.95     77.95   242.13    375.00    8.66   False
  126.05   126.19     63.94     63.94   242.10    347.00    8.33   False
  126.10   126.24     52.52     52.52   242.08    347.00    8.33   False
  126.15   126.29     44.14     44.14   242.05    318.00    7.97   False
  126.20   126.34     38.74     38.74   242.02    310.00    7.87   False
  126.25   126.39     36.09     36.09   241.99    302.00    7.77   False
  126.30   126.44     36.01     36.01   241.96    311.00    7.89   False
  126.35   126.49     38.61     38.61   241.93    326.00    8.07   False
  126.40   126.54     44.33     44.33   241.90    320.00    8.00   False
  126.45   126.59     53.85     53.85   241.87    334.00    8.17   False
  126.50   126.64     67.93     67.93   241.84    374.00    8.65   False
  126.55   126.69     87.10     87.10   241.81    444.00    9.42   False
  126.60   126.74    111.22    111.22   241.78    484.00    9.84   False
  126.65   126.79    139.13    139.13   241.75    561.00   10.59   False
  126.70   126.84    168.50    168.50   241.72    647.00   11.38   False
  126.75   126.89    195.97    195.97   241.69    699.00   11.82   False
  126.80   126.94    217.66    217.66   241.66    747.00   12.22   False
  126.85   126.99    230.04    230.04   241.63    767.00   12.39   False
  126.90   127.04    231.04    231.04   241.60    749.00   12.24   False
  126.95   127.09    221.12    221.12   241.57    723.00   12.03   False
  127.00   127.14    203.76    203.76   241.54    664.00   11.52   False
  127.05   127.19    184.39    184.39   241.51    619.00   11.13   False
  127.10   127.24    168.24    168.24   241.48    578.00   10.75   False
  127.15   127.29    158.44    158.44   241.45    553.00   10.52   False
  127.20   127.34    155.55    155.55   241.42    541.00   10.40   False
  127.25   127.39    158.03    158.03   241.39    530.00   10.30   False
  127.30   127.44    163.23    163.23   241.36    530.00   10.30   False
  127.35   127.49    168.25    168.25   241.33    525.00   10.25   False
  127.40   127.54    170.56    170.56   241.30    517.00   10.17   False
  127.45   127.59    168.25    168.25   241.27    493.00    9.93   False
  127.50   127.64    160.19    160.19   241.24    482.00    9.82   False
  127.55   127.69    146.25    146.25   241.21    456.00    9.55   False
  127.60   127.74    127.62    127.62   241.18    423.00    9.20   False
  127.65   127.79    106.69    106.69   241.15    383.00    8.75   False
  127.70   127.84     86.26     86.26   241.12    380.00    8.72   False
  127.75   127.89     68.54     68.54   241.09    343.00    8.28   False
  127.80   127.94     54.64     54.64   241.06    326.00    8.07   False
  127.85   127.99     44.61     44.61   241.03    314.00    7.92   False
  127.90   128.04     37.88     37.88   241.00    302.00    7.77   False
  127.95   128.09     33.67     33.67   240.98    303.00    7.78   False
  128.00   128.14     31.30     31.30   240.95    290.00    7.62   False
  128.05   128.19     30.34     30.34   240.92    290.00    7.62   False
  128.10   128.24     30.67     30.67   240.89    293.00    7.66   False
  128.15   128.29     32.47     32.47   240.86    277.00    7.44   False
  128.20   128.34     36.17     36.17   240.83    286.00    7.56   False
  128.25   128.39     42.39     42.39   240.80    309.00    7.86   False
  128.30   128.44     51.84     51.84   240.77    327.00    8.09   False
  128.35   128.49     65.18     65.18   240.74    357.00    8.45   False
  128.40   128.54     82.78     82.78   240.71    396.00    8.90   False
  128.45   128.59    104.46    104.46   240.68    468.00    9.67   False
  128.50   128.64    129.18    129.18   240.65    529.00   10.29   False
  128.55   128.69    155.02    155.02   240.62    590.00   10.86   False
  128.60   128.74    179.20    179.20   240.59    649.00   11.39   False
  128.65   128.79    198.55    198.55   240.56    699.00   11.82   False
  128.70   128.84    210.12    210.12   240.53    720.00   12.00   False
  128.75   128.89    212.02    212.02   240.50    705.00   11.87   False
  128.80   128.94    204.30    204.30   240.47    672.00   11.59   False
  128.85   128.99    189.46    189.46   240.44    635.00   11.27   False
  128.90   129.04    172.00    172.00   240.41    604.00   10.99   False
  128.95   129.09    156.94    156.94   240.38    564.00   10.62   False
  129.00   129.14    148.12    148.12   240.35    548.00   10.47   False
  129.05   129.19    147.17    147.17   240.32    537.00   10.36   False
  129.10   129.24    153.49    153.49   240.29    564.00   10.62   False
  129.15   129.29    164.73    164.73   240.26    588.00   10.84   False
  129.20   129.34    177.52    177.52   240.23    611.00   11.05   False
  129.25   129.39    188.18    188.18   240.20    636.00   11.28   False
  129.30   129.44    193.46    193.46   240.17    636.00   11.28   False
  129.35   129.49    191.15    191.15   240.14    606.00   11.01   False
  129.40   129.54    180.68    180.68   240.11    600.00   10.95   False
  129.45   129.59    163.46    163.46   240.08    560.00   10.58   False
  129.50   129.64    142.58    142.58   240.05    512.00   10.12   False
  129.55   129.69    121.85    121.85   240.02    473.00    9.73   False
  129.60   129.74    104.49    104.49   239.99    453.00    9.52   False
  129.65   129.79     92.41     92.41   239.96    428.00    9.25   False
  129.70   129.84     86.22     86.22   239.93    390.00    8.83   False
  129.75   129.89     85.71     85.71   239.90    393.00    8.87   False
  129.80   129.94     90.34     90.34   239.88    401.00    8.96   False
  129.85   129.99     99.66     99.66   239.85    395.00    8.89   False
  129.90   130.04    113.47    113.47   239.82    440.00    9.38   False
  129.95   130.09    131.65    131.65   239.79    479.00    9.79   False
  130.00   130.14    153.87    153.87   239.76    549.00   10.48   False
  130.05   130.19    179.14    179.14   239.73    618.00   11.12   False
  130.10   130.24    205.48    205.48   239.70    675.00   11.62   False
  130.15   130.29    229.89    229.89   239.67    746.00   12.21   False
  130.20   130.34    248.78    248.78   239.64    803.00   12.67   False
  130.25   130.39    258.62    258.62   239.61    805.00   12.69   False
  130.30   130.44    256.85    256.85   239.58    788.00   12.55   False
  130.35   130.49    242.78    242.78   239.55    748.00   12.23   False
  130.40   130.54    218.12    218.12   239.52    671.00   11.58   False
  130.45   130.59    186.69    186.69   239.49    621.00   11.14   False
  130.50   130.64    153.17    153.17   239.46    544.00   10.43   False
  130.55   130.69    121.65    121.65   239.43    460.00    9.59   False
  130.60   130.74     94.75     94.75   239.40    421.00    9.18   False
  130.65   130.79     73.52     73.52   239.37    384.00    8.76   False
  130.70   130.84     57.80     57.80   239.34    343.00    8.28   False
  130.75   130.89     46.71     46.71   239.31    321.00    8.01   False
  130.80   130.94     39.12     39.12   239.28    298.00    7.72   False
  130.85   130.99     33.95     33.95   239.25    278.00    7.46   False
  130.90   131.04     30.38     30.38   239.22    287.00    7.58   False
  130.95   131.09     27.91     27.91   239.19    280.00    7.48   False
  131.00   131.14     26.28     26.28   239.16    268.00    7.32   False
  131.05   131.19     25.42     25.42   239.13    281.00    7.50   False
  131.10   131.24     25.37     25.37   239.10    272.00    7.38   False
  131.15   131.29     26.18     26.18   239.07    287.00    7.58   False
  131.20   131.34     27.94     27.94   239.04    282.00    7.51   False
  131.25   131.39     30.68     30.68   239.01    284.00    7.54   False
  131.30   131.44     34.40     34.40   238.98    300.00    7.75   False
  131.35   131.49     39.08     39.08   238.95    303.00    7.78   False
  131.40   131.54     44.67     44.67   238.92    309.00    7.86   False
  131.45   131.59     51.14     51.14   238.89    322.00    8.03   False
  131.50   131.64     58.52     58.52   238.86    340.00    8.25   False
  131.55   131.69     66.88     66.88   238.83    347.00    8.33   False
  131.60   131.74     76.37     76.37   238.80    370.00    8.60   False
  131.65   131.79     87.09     87.09   238.78    401.00    8.96   False
  131.70   131.84     99.01     99.01   238.75    420.00    9.17   False
  131.75   131.89    111.83    111.83   238.72    451.00    9.50   False
  131.80   131.94    124.74    124.74   238.69    491.00    9.91   False
  131.85   131.99    136.43    136.43   238.66    508.00   10.08   False
  131.90   132.04    145.24    145.24   238.63    530.00   10.30   False
  131.95   132.09    149.41    149.41   238.60    531.00   10.31   False
  132.00   132.14    147.62    147.62   238.57    522.00   10.22   False
  132.05   132.19    139.38    139.38   238.54    484.00   11.00   False
  132.10   132.24    125.37    125.37   238.51    468.00   10.82   False
  132.15   132.29    107.47    107.47   238.48    427.00   10.33   False
  132.20   132.34     88.15     88.15   238.45    379.00    9.73   False
  132.25   132.39     69.79     69.79   238.42    365.00    9.55   False
  132.30   132.44     54.06     54.06   238.39    344.00    9.27   False
  132.35   132.49     41.68     41.68   238.36    321.00    8.96   False
  132.40   132.54     32.63     32.63   238.33    294.00    8.57   False
  132.45   132.59     26.39     26.39   238.30    291.00    8.53   False
  132.50   132.64     22.23     22.23   238.27    284.00    8.43   False
  132.55   132.69     19.46     19.46   238.24    264.00    8.12   False
  132.60   132.74     17.50     17.50   238.21    281.00    8.38   False
  132.65   132.79     15.98     15.98   238.18    261.00    8.08   False
  132.70   132.84     14.68     14.68   238.15    256.00    8.00   False
  132.75   132.89     13.54     13.54   238.12    261.00    8.08   False
  132.80   132.94     12.52     12.52   238.09    266.00    8.15   False
  132.85   132.99     11.64     11.64   238.06    264.00    8.12   False
  132.90   133.04     10.90     10.90   238.03    258.00    8.03   False
  132.95   133.09     10.31     10.31   238.00    262.00    8.09   False
  133.00   133.14      9.84      9.84   237.97    250.00    7.91   False
  133.05   133.19      9.47      9.47   237.94    261.00    8.08   False
  133.10   133.24      9.20      9.20   237.91    257.00    8.02   False
  133.15   133.29      8.99      8.99   237.88    253.00    7.95   False
  133.20   133.34      8.84      8.84   237.85    247.00    7.86   False
  133.25   133.39      8.72      8.72   237.82    259.00    8.05   False
  133.30   133.44      8.64      8.64   237.79    259.00    8.05   False
  133.35   133.49      8.58      8.58   237.76    256.00    8.00   False
  133.40   133.54      8.53      8.53   237.73    253.00    7.95   False
  133.45   133.59      8.49      8.49   237.70    256.00    8.00   False
  133.50   133.64      8.45      8.45   237.68    257.00    8.02   False
  133.55   133.69      8.40      8.40   237.65    261.00    8.08   False
  133.60   133.74      8.35      8.35   237.62    246.00    7.84   False
  133.65   133.79      8.30      8.30   237.59    247.00    7.86   False
  133.70   133.84      8.28      8.28   237.56    250.00    7.91   False
  133.75   133.89      8.29      8.29   237.53    270.00    8.22   False
  133.80   133.94      8.35      8.35   237.50    254.00    7.97   False
  133.85   133.99      8.47      8.47   237.47    245.00    7.83   False
  133.90   134.04      8.66      8.66   237.44    254.00    7.97   False
  133.95   134.09      8.95      8.95   237.41    274.00    8.28   False
  134.00   134.14      9.37      9.37   237.38    272.00    8.25   False
  134.05   134.19      9.94      9.94   237.35    253.00    7.95   False
  134.10   134.24     10.72     10.72   237.32    260.00    8.06   False
  134.15   134.29     11.80     11.80   237.29    272.00    8.25   False
  134.20   134.34     13.31     13.31   237.26    265.00    8.14   False
  134.25   134.39     15.41     15.41   237.23    267.00    8.17   False
  134.30   134.44     18.37     18.37   237.20    276.00    8.31   False
  134.35   134.49     22.48     22.48   237.17    280.00    8.37   False
  134.40   134.54     28.14     28.14   237.14    289.00    8.50   False
  134.45   134.59     35.78     35.78   237.11    318.00    8.92   False
  134.50   134.64     45.84     45.84   237.08    331.00    9.10   False
  134.55   134.69     58.68     58.68   237.05    366.00    9.57   False
  134.60   134.74     74.48     74.48   237.02    386.00    9.82   False
  134.65   134.79     93.15     93.15   236.99    426.00   10.32   False
  134.70   134.84    114.23    114.23   236.96    461.00   10.74   False
  134.75   134.89    136.85    136.85   236.93    495.00   11.12   False
  134.80   134.94    159.75    159.75   236.90    532.00   11.53   False
  134.85   134.99    181.35    181.35   236.87    591.00   12.16   False
  134.90   135.04    199.94    199.94   236.84    627.00   12.52   False
  134.95   135.09    213.85    213.85   236.81    616.00   12.41   False
  135.00   135.14    221.76    221.76   236.78    634.00   12.59   False
  135.05   135.19    222.96    222.96   236.75    668.00   12.92   False
  135.10   135.24    217.51    217.51   236.72    645.00   12.70   False
  135.15   135.29    206.27    206.27   236.69    620.00   12.45   False
  135.20   135.34    190.59    190.59   236.66    607.00   12.32   False
  135.25   135.39    171.91    171.91   236.63    560.00   11.83   False
  135.30   135.44    151.51    151.51   236.60    518.00   11.38   False
  135.35   135.49    130.47    130.47   236.57    470.00   10.84   False
  135.40   135.54    109.80    109.80   236.55    445.00   10.55   False
  135.45   135.59     90.43     90.43   236.52    398.00    9.97   False
  135.50   135.64     73.18     73.18   236.49    376.00    9.70   False
  135.55   135.69     58.57     58.57   236.46    336.00    9.17   False
  135.60   135.74     46.82     46.82   236.43    325.00    9.01   False
  135.65   135.79     37.80     37.80   236.40    301.00    8.67   False
  135.70   135.84     31.17     31.17   236.37    303.00    8.70   False
  135.75   135.89     26.46     26.46   236.34    275.00    8.29   False
  135.80   135.94     23.21     23.21   236.31    273.00    8.26   False
  135.85   135.99     20.99     20.99   236.28    288.00    8.49   False
  135.90   136.04     19.45     19.45   236.25    278.00    8.34   False
  135.95   136.09     18.36     18.36   236.22    274.00    8.28   False
  136.00   136.14     17.57     17.57   236.19    273.00    8.26   False
  136.05   136.19     16.99     16.99   236.16    260.00    8.06   False
  136.10   136.24     16.60     16.60   236.13    268.00    8.19   False
  136.15   136.29     16.38     16.38   236.10    276.00    8.31   False
  136.20   136.34     16.35     16.35   236.07    276.00    8.31   False
  136.25   136.39     16.51     16.51   236.04    294.00    8.57   False
  136.30   136.44     16.85     16.85   236.01    293.00    8.56   False
  136.35   136.49     17.39     17.39   235.98    277.00    8.32   False
  136.40   136.54     18.12     18.12   235.95    292.00    8.54   False
  136.45   136.59     19.06     19.06   235.92    284.00    8.43   False
  136.50   136.64     20.26     20.26   235.89    273.00    8.26   False
  136.55   136.69     21.83     21.83   235.86    291.00    8.53   False
  136.60   136.74     23.93     23.93   235.83    287.00    8.47   False
  136.65   136.79     26.81     26.81   235.80    303.00    8.70   False
  136.70   136.84     30.79     30.79   235.77    306.00    8.75   False
  136.75   136.89     36.31     36.31   235.74    315.00    8.87   False
  136.80   136.94     43.82     43.82   235.71    333.00    9.12   False
  136.85   136.99     53.79     53.79   235.68    367.00    9.58   False
  136.90   137.04     66.57     66.57   235.65    387.00    9.84   False
  136.95   137.09     82.33     82.33   235.62    404.00   10.05   False
  137.00   137.14    100.97    100.97   235.59    440.00   10.49   False
  137.05   137.19    121.97    121.97   235.56    480.00   10.95   False
  137.10   137.24    144.41    144.41   235.53    533.00   11.54   False
  137.15   137.29    166.93    166.93   235.50    601.00   12.26   False
  137.20   137.34    187.86    187.86   235.47    620.00   12.45   False
  137.25   137.39    205.36    205.36   235.45    647.00   12.72   False
  137.30   137.44    217.62    217.62   235.42    663.00   12.87   False
  137.35   137.49    223.17    223.17   235.39    652.00   12.77   False
  137.40   137.54    221.16    221.16   235.36    665.00   12.89   False
  137.45   137.59    211.57    211.57   235.33    630.00   12.55   False
  137.50   137.64    195.38    195.38   235.30    628.00   12.53   False
  137.55   137.69    174.53    174.53   235.27    577.00   12.01   False
  137.60   137.74    151.56    151.56   235.24    520.00   11.40   False
  137.65   137.79    129.09    129.09   235.21    472.00   10.86   False
  137.70   137.84    109.33    109.33   235.18    453.00   10.64   False
  137.75   137.89     93.78     93.78   235.15    413.00   10.16   False
  137.80   137.94     83.18     83.18   235.12    412.00   10.15   False
  137.85   137.99     77.57     77.57   235.09    396.00    9.95   False
  137.90   138.04     76.55     76.55   235.06    361.00   10.97   False
  137.95   138.09     79.48     79.48   235.03    370.00   11.11   False
  138.00   138.14     85.61     85.61   235.00    402.00   11.58   False
  138.05   138.19     94.21     94.21   234.97    389.00   11.39   False
  138.10   138.24    104.61    104.61   234.94    423.00   11.87   False
  138.15   138.29    116.23    116.23   234.91    452.00   12.27   False
  138.20   138.34    128.45    128.45   234.88    469.00   12.50   False
  138.25   138.39    140.64    140.64   234.85    498.00   12.88   False
  138.30   138.44    152.01    152.01   234.82    535.00   13.35   False
  138.35   138.49    161.68    161.68   234.79    538.00   13.39   False
  138.40   138.54    168.66    168.66   234.76    564.00   13.71   False
  138.45   138.59    171.98    171.98   234.73    572.00   13.81   False
  138.50   138.64    170.85    170.85   234.70    585.00   13.96   False
  138.55   138.69    164.85    164.85   234.67    574.00   13.83   False
  138.60   138.74    154.07    154.07   234.64    543.00   13.45   False
  138.65   138.79    139.22    139.22   234.61    495.00   12.85   False
  138.70   138.84    121.53    121.53   234.58    484.00   12.70   False
  138.75   138.89    102.56    102.56   234.55    460.00   12.38   False
  138.80   138.94     83.89     83.89   234.52    428.00   11.94   False
  138.85   138.99     66.82     66.82   234.49    375.00   11.18   False
  138.90   139.04     52.20     52.20   234.46    341.00   10.66   False
  138.95   139.09     40.43     40.43   234.43    340.00   10.65   False
  139.00   139.14     31.49     31.49   234.40    312.00   10.20   False
  139.05   139.19     25.08     25.08   234.37    309.00   10.15   False
  139.10   139.24     20.74     20.74   234.35    288.00    9.80   False
  139.15   139.29     17.95     17.95   234.32    271.00    9.50   False
  139.20   139.34     16.23     16.23   234.29    273.00    9.54   False
  139.25   139.39     15.17     15.17   234.26    267.00    9.43   False
  139.30   139.44     14.47     14.47   234.23    255.00    9.22   False
  139.35   139.49     13.94     13.94   234.20    266.00    9.42   False
  139.40   139.54     13.47     13.47   234.17    261.00    9.33   False
  139.45   139.59     13.03     13.03   234.14    269.00    9.47   False
  139.50   139.64     12.61     12.61   234.11    257.00    9.26   False
  139.55   139.69     12.24     12.24   234.08    249.00    9.11   False
  139.60   139.74     11.95     11.95   234.05    245.00    9.04   False
  139.65   139.79     11.78     11.78   234.02    259.00    9.29   False
  139.70   139.84     11.75     11.75   233.99    258.00    9.27   False
  139.75   139.89     11.88     11.88   233.96    259.00    9.29   False
  139.80   139.94     12.15     12.15   233.93    268.00    9.45   False
  139.85   139.99     12.58     12.58   233.90    279.00    9.64   False
  139.90   140.04     13.12     13.12   233.87    256.00    9.24   False
  139.95   140.09     13.76     13.76   233.84    259.00    9.29   False
  140.00   140.14     14.46     14.46   233.81    287.00    9.78   False
  140.05   140.19     15.17     15.17   233.78    269.00    9.47   False
  140.10   140.24     15.84     15.84   233.75    281.00    9.68   False
  140.15   140.29     16.46     16.46   233.72    268.00    9.45   False
  140.20   140.34     17.00     17.00   233.69    277.00    9.61   False
  140.25   140.39     17.46     17.46   233.66    278.00    9.63   False
  140.30   140.44     17.86     17.86   233.63    287.00    9.78   False
  140.35   140.49     18.27     18.27   233.60    277.00    9.61   False
  140.40   140.54     18.74     18.74   233.57    285.00    9.75   False
  140.45   140.59     19.36     19.36   233.54    284.00    9.73   False
  140.50   140.64     20.21     20.21   233.51    278.00    9.63   False
  140.55   140.69     21.34     21.34   233.48    288.00    9.80   False
  140.60   140.74     22.74     22.74   233.45    279.00    9.64   False
  140.65   140.79     24.38     24.38   233.42    287.00    9.78   False
  140.70   140.84     26.16     26.16   233.39    289.00    9.81   False
  140.75   140.89     27.92     27.92   233.36    308.00   10.13   False
  140.80   140.94     29.49     29.49   233.33    308.00   10.13   False
  140.85   140.99     30.71     30.71   233.30    288.00    9.80   False
  140.90   141.04     31.39     31.39   233.27    302.00   10.03   False
  140.95   141.09     31.42     31.42   233.25    295.00    9.92   False
  141.00   141.14     30.73     30.73   233.22    301.00   10.02   False
  141.05   141.19     29.35     29.35   233.19    303.00   10.05   False
  141.10   141.24     27.36     27.36   233.16    294.00    9.90   False
  141.15   141.29     24.94     24.94   233.13    287.00    9.78   False
  141.20   141.34     22.33     22.33   233.10    279.00    9.64   False
  141.25   141.39     19.76     19.76   233.07    279.00    9.64   False
  141.30   141.44     17.48     17.48   233.04    276.00    9.59   False
  141.35   141.49     15.66     15.66   233.01    275.00    9.57   False
  141.40   141.54     14.45     14.45   232.98    264.00    9.38   False
  141.45   141.59     13.93     13.93   232.95    274.00    9.56   False
  141.50   141.64     14.11     14.11   232.92    269.00    9.47   False
  141.55   141.69     14.97     14.97   232.89    269.00    9.47   False
  141.60   141.74     16.48     16.48   232.86    268.00    9.45   False
  141.65   141.79     18.53     18.53   232.83    261.00    9.33   False
  141.70   141.84     21.02     21.02   232.80    256.00    9.24   False
  141.75   141.89     23.81     23.81   232.77    284.00    9.73   False
  141.80   141.94     26.73     26.73   232.74    279.00    9.64   False
  141.85   141.99     29.61     29.61   232.71    280.00    9.66   False
  141.90   142.04     32.25     32.25   232.68    296.00    9.93   False
  141.95   142.09     34.46     34.46   232.65    297.00    9.95   False
  142.00   142.14     36.06     36.06   232.62    296.00    9.93   False
  142.05   142.19     36.90     36.90   232.59    308.00   10.13   False
  142.10   142.24     36.87     36.87   232.56    301.00   10.02   False
  142.15   142.29     35.94     35.94   232.53    300.00   10.00   False
  142.20   142.34     34.12     34.12   232.50    297.00    9.95   False
  142.25   142.39     31.55     31.55   232.47    300.00   10.00   False
  142.30   142.44     28.41     28.41   232.44    289.00    9.81   False
  142.35   142.49     24.92     24.92   232.41    290.00    9.83   False
  142.40   142.54     21.35     21.35   232.38    274.00    9.56   False
  142.45   142.59     17.91     17.91   232.35    275.00    9.57   False
  142.50   142.64     14.80     14.80   232.32    264.00    9.38   False
  142.55   142.69     12.13     12.13   232.29    262.00    9.35   False
  142.60   142.74      9.95      9.95   232.26    249.00    9.11   False
  142.65   142.79      8.28      8.28   232.23    251.00    9.15   False
  142.70   142.84      7.07      7.07   232.20    248.00    9.09   False
  142.75   142.89      6.25      6.25   232.17    252.00    9.17   False
  142.80   142.94      5.74      5.74   232.15    249.00    9.11   False
  142.85   142.99      5.48      5.48   232.12    249.00    9.11   False
  142.90   143.04      5.37      5.37   232.09    262.00    9.35   False
  142.95   143.09      5.37      5.37   232.06    251.00    9.15   False
  143.00   143.14      5.42      5.42   232.03    239.00    8.93   False
  143.05   143.19      5.50      5.50   232.00    263.00    9.36   False
  143.10   143.24      5.57      5.57   231.97    265.00    9.40   False
  143.15   143.29      5.63      5.63   231.94    240.00    8.94   False
  143.20   143.34      5.68      5.68   231.91    236.00    8.87   False
  143.25   143.39      5.71      5.71   231.88    250.00    9.13   False
  143.30   143.44      5.74      5.74   231.85    248.00    9.09   False
  143.35   143.49      5.75      5.75   231.82    248.00    9.09   False
  143.40   143.54      5.76      5.76   231.79    254.00    9.20   False
  143.45   143.59      5.77      5.77   231.76    262.00    9.35   False
  143.50   143.64      5.80      5.80   231.73    252.00    9.17   False
  143.55   143.69      5.83      5.83   231.70    246.00    9.06   False
  143.60   143.74      5.88      5.88   231.67    250.00    9.13   False
  143.65   143.79      5.96      5.96   231.64    251.00    9.15   False
  143.70   143.84      6.08      6.08   231.61    247.00    9.07   False
  143.75   143.89      6.24      6.24   231.58    248.00    9.09   False
  143.80   143.94      6.46      6.46   231.55    254.00    9.20   False
  143.85   143.99      6.76      6.76   231.52    236.00    8.87   False
  143.90   144.04      7.15      7.15   231.49    251.00    9.15   False
  143.95   144.09      7.67      7.67   231.46    247.00    9.07   False
  144.00   144.14      8.36      8.36   231.43    254.00    9.20   False
  144.05   144.19      9.24      9.24   231.40    248.00    9.09   False
  144.10   144.24     10.38     10.38   231.37    259.00   11.38   False
  144.15   144.29     11.84     11.84   231.34    259.00   11.38   False
  144.20   144.34     13.68     13.68   231.31    274.00   11.70   False
  144.25   144.39     15.99     15.99   231.28    263.00   11.47   False
  144.30   144.44     18.85     18.85   231.25    287.00   11.98   False
  144.35   144.49     22.33     22.33   231.22    283.00   11.90   False
  144.40   144.54     26.50     26.50   231.19    281.00   11.85   False
  144.45   144.59     31.39     31.39   231.16    296.00   12.17   False
  144.50   144.64     37.01     37.01   231.13    292.00   12.08   False
  144.55   144.69     43.31     43.31   231.10    323.00   12.71   False
  144.60   144.74     50.22     50.22   231.07    330.00   12.85   False
  144.65   144.79     57.56     57.56   231.05    339.00   13.02   False
  144.70   144.84     65.13     65.13   231.02    358.00   13.38   False
  144.75   144.89     72.66     72.66   230.99    349.00   13.21   False
  144.80   144.94     79.85     79.85   230.96    365.00   13.51   False
  144.85   144.99     86.37     86.37   230.93    399.00   14.12   False
  144.90   145.04     91.89     91.89   230.90    406.00   14.25   False
  144.95   145.09     96.14     96.14   230.87    428.00   14.63   False
  145.00   145.14     98.90     98.90   230.84    413.00   14.37   False
  145.05   145.19    100.02    100.02   230.81    439.00   14.82   False
  145.10   145.24     99.52     99.52   230.78    418.00   14.46   False
  145.15   145.29     97.50     97.50   230.75    425.00   14.58   False
  145.20   145.34     94.23     94.23   230.72    411.00   14.34   False
  145.25   145.39     90.09     90.09   230.69    417.00   14.44   False
  145.30   145.44     85.55     85.55   230.66    391.00   13.98   False
  145.35   145.49     81.14     81.14   230.63    393.00   14.02   False
  145.40   145.54     77.34     77.34   230.60    386.00   13.89   False
  145.45   145.59     74.60     74.60   230.57    359.00   13.40   False
  145.50   145.64     73.24     73.24   230.54    381.00   13.80   False
  145.55   145.69     73.42     73.42   230.51    363.00   13.47   False
  145.60   145.74     75.20     75.20   230.48    364.00   13.49   False
  145.65   145.79     78.49     78.49   230.45    375.00   13.69   False
  145.70   145.84     83.08     83.08   230.42    379.00   13.77   False
  145.75   145.89     88.72     88.72   230.39    392.00   14.00   False
  145.80   145.94     95.10     95.10   230.36    402.00   14.18   False
  145.85   145.99    101.92    101.92   230.33    436.00   14.76   False
  145.90   146.04    108.90    108.90   230.30    451.00   15.02   False
  145.95   146.09    115.83    115.83   230.27    463.00   15.22   False
  146.00   146.14    122.55    122.55   230.24    452.00   15.03   False
  146.05   146.19    128.97    128.97   230.21    449.00   14.98   False
  146.10   146.24    135.10    135.10   230.18    479.00   15.48   False
  146.15   146.29    140.98    140.98   230.15    485.00   15.57   False
  146.20   146.34    146.70    146.70   230.12    484.00   15.56   False
  146.25   146.39    152.36    152.36   230.09    472.00   15.36   False
  146.30   146.44    158.01    158.01   230.06    508.00   15.94   False
  146.35   146.49    163.62    163.62   230.03    518.00   16.09   False
  146.40   146.54    169.07    169.07   230.00    523.00   16.17   False
  146.45   146.59    174.15    174.15   229.97    561.00   16.75   False
  146.50   146.64    178.55    178.55   229.95    559.00   16.72   False
  146.55   146.69    181.90    181.90   229.92    573.00   16.93   False
  146.60   146.74    183.82    183.82   229.89    545.00   16.51   False
  146.65   146.79    183.97    183.97   229.86    561.00   16.75   False
  146.70   146.84    182.06    182.06   229.83    568.00   16.85   False
  146.75   146.89    177.94    177.94   229.80    573.00   16.93   False
  146.80   146.94    171.56    171.56   229.77    562.00   16.76   False
  146.85   146.99    163.02    163.02   229.74    573.00   16.93   False
  146.90   147.04    152.56    152.56   229.71    565.00   16.81   False
  146.95   147.09    140.50    140.50   229.68    499.00   15.80   False
  147.00   147.14    127.30    127.30   229.65    496.00   15.75   False
  147.05   147.19    113.46    113.46   229.62    488.00   15.62   False
  147.10   147.24     99.50     99.50   229.59    449.00   14.98   False
  147.15   147.29     85.94     85.94   229.56    442.00   14.87   False
  147.20   147.34     73.28     73.28   229.53    391.00   13.98   False
  147.25   147.39     61.89     61.89   229.50    387.00   13.91   False
  147.30   147.44     52.07     52.07   229.47    390.00   13.96   False
  147.35   147.49     43.98     43.98   229.44    359.00   13.40   False
  147.40   147.54     37.68     37.68   229.41    338.00   13.00   False
  147.45   147.59     33.11     33.11   229.38    321.00   12.67   False
  147.50   147.64     30.15     30.15   229.35    322.00   12.69   False
  147.55   147.69     28.58     28.58   229.32    327.00   12.79   False
  147.60   147.74     28.16     28.16   229.29    338.00   13.00   False
  147.65   147.79     28.63     28.63   229.26    306.00   12.37   False
  147.70   147.84     29.71     29.71   229.23    290.00   12.04   False
  147.75   147.89     31.15     31.15   229.20    320.00   12.65   False
  147.80   147.94     32.73     32.73   229.17    308.00   12.41   False
  147.85   147.99     34.23     34.23   229.14    300.00   12.25   False
  147.90   148.04     35.51     35.51   229.11    307.00   12.39   False
  147.95   148.09     36.46     36.46   229.08    306.00   12.37   False
  148.00   148.14     37.01     37.01   229.05    314.00   12.53   False
  148.05   148.19     37.17     37.17   229.02    318.00   12.61   False
  148.10   148.24     36.94     36.94   228.99    298.00   12.21   False
  148.15   148.29     36.41     36.41   228.96    313.00   12.51   False
  148.20   148.34     35.66     35.66   228.93    303.00   12.31   False
  148.25   148.39     34.83     34.83   228.90    302.00   12.29   False
  148.30   148.44     34.02     34.02   228.87    333.00   12.90   False
  148.35   148.49     33.37     33.37   228.85    285.00   11.94   False
  148.40   148.54     32.97     32.97   228.82    312.00   12.49   False
  148.45   148.59     32.91     32.91   228.79    312.00   12.49   False
  148.50   148.64     33.22     33.22   228.76    285.00   11.94   False
  148.55   148.69     33.92     33.92   228.73    290.00   12.04   False
  148.60   148.74     34.97     34.97   228.70    288.00   12.00   False
  148.65   148.79     36.31     36.31   228.67    294.00   12.12   False
  148.70   148.84     37.84     37.84   228.64    314.00   12.53   False
  148.75   148.89     39.45     39.45   228.61    300.00   12.25   False
  148.80   148.94     41.00     41.00   228.58    306.00   12.37   False
  148.85   148.99     42.36     42.36   228.55    293.00   12.10   False
  148.90   149.04     43.41     43.41   228.52    299.00   12.23   False
  148.95   149.09     44.03     44.03   228.49    328.00   12.81   False
  149.00   149.14     44.12     44.12   228.46    325.00   12.75   False
  149.05   149.19     43.63     43.63   228.43    328.00   12.81   False
  149.10   149.24     42.53     42.53   228.40    317.00   12.59   False
  149.15   149.29     40.82     40.82   228.37    292.00   12.08   False
  149.20   149.34     38.55     38.55   228.34    321.00   12.67   False
  149.25   149.39     35.81     35.81   228.31    291.00   12.06   False
  149.30   149.44     32.72     32.72   228.28    302.00   12.29   False
  149.35   149.49     29.39     29.39   228.25    291.00   12.06   False
  149.40   149.54     25.96     25.96   228.22    297.00   12.19   False
  149.45   149.59     22.59     22.59   228.19    301.00   12.27   False
  149.50   149.64     19.37     19.37   228.16    270.00   11.62   False
  149.55   149.69     16.42     16.42   228.13    262.00   11.45   False
  149.60   149.74     13.80     13.80   228.10    277.00   11.77   False
  149.65   149.79     11.56     11.56   228.07    258.00   11.36   False
  149.70   149.84      9.74      9.74   228.04    258.00   11.36   False
  149.75   149.89      8.33      8.33   228.01    243.00   11.02   False
  149.80   149.94      7.33      7.33   227.98    269.00   11.60   False
  149.85   149.99      6.70      6.70   227.95    257.00   11.34   False
  149.90   150.04      6.43      6.43   227.92    257.00   11.34   False
  149.95   150.09      6.47      6.47   227.89    240.00   10.95   False
  150.00   150.14      6.82      6.82   227.86    282.00   16.79   False
  150.05   150.19      7.43      7.43   227.83    245.00   15.65   False
  150.10   150.24      8.30      8.30   227.80    243.00   15.59   False
  150.15   150.29      9.42      9.42   227.77    260.00   16.12   False
  150.20   150.34     10.79     10.79   227.75    255.00   15.97   False
  150.25   150.39     12.41     12.41   227.72    275.00   16.58   False
  150.30   150.44     14.31     14.31   227.69    255.00   15.97   False
  150.35   150.49     16.49     16.49   227.66    270.00   16.43   False
  150.40   150.54     18.97     18.97   227.63    286.00   16.91   False
  150.45   150.59     21.77     21.77   227.60    271.00   16.46   False
  150.50   150.64     24.88     24.88   227.57    258.00   16.06   False
  150.55   150.69     28.31     28.31   227.54    309.00   17.58   False
  150.60   150.74     32.03     32.03   227.51    299.00   17.29   False
  150.65   150.79     36.01     36.01   227.48    297.00   17.23   False
  150.70   150.84     40.18     40.18   227.45    304.00   17.44   False
  150.75   150.89     44.47     44.47   227.42    319.00   17.86   False
  150.80   150.94     48.78     48.78   227.39    314.00   17.72   False
  150.85   150.99     53.00     53.00   227.36    290.00   17.03   False
  150.90   151.04     57.02     57.02   227.33    338.00   18.38   False
  150.95   151.09     60.69     60.69   227.30    316.00   17.78   False
  151.00   151.14     63.88     63.88   227.27    341.00   18.47   False
  151.05   151.19     66.47     66.47   227.24    384.00   19.60   False
  151.10   151.24     68.33     68.33   227.21    360.00   18.97   False
  151.15   151.29     69.37     69.37   227.18    367.00   19.16   False
  151.20   151.34     69.52     69.52   227.15    383.00   19.57   False
  151.25   151.39     68.72     68.72   227.12    366.00   19.13   False
  151.30   151.44     66.99     66.99   227.09    369.00   19.21   False
  151.35   151.49     64.34     64.34   227.06    363.00   19.05   False
  151.40   151.54     60.85     60.85   227.03    332.00   18.22   False
  151.45   151.59     56.63     56.63   227.00    325.00   18.03   False
  151.50   151.64     51.82     51.82   226.97    334.00   18.28   False
  151.55   151.69     46.59     46.59   226.94    373.00   19.31   False
  151.60   151.74     41.12     41.12   226.91    336.00   18.33   False
  151.65   151.79     35.58     35.58   226.88    313.00   17.69   False
  151.70   151.84     30.15     30.15   226.85    339.00   18.41   False
  151.75   151.89     24.97     24.97   226.82    325.00   18.03   False
  151.80   151.94     20.18     20.18   226.79    307.00   17.52   False
  151.85   151.99     15.85     15.85   226.76    277.00   16.64   False
  151.90   152.04     12.06     12.06   226.73    286.00   16.91   False
  151.95   152.09      8.83      8.83   226.70    305.00   17.46   False
  152.00   152.14      6.16      6.16   226.67    277.00   16.64   False
  152.05   152.19      4.05      4.05   226.64    262.00   16.19   False
  152.10   152.24      2.45      2.45   226.62    262.00   16.19   False
  152.15   152.29      1.31      1.31   226.59    241.00   15.52   False
  152.20   152.34      0.57      0.57   226.56    251.00   15.84   False
  152.25   152.39      0.18      0.18   226.53    260.00   16.12   False
  152.30   152.44      0.07      0.07   226.50    245.00   15.65   False
  152.35   152.49      0.17      0.17   226.47    249.00   15.78   False
  152.40   152.54      0.44      0.44   226.44    260.00   16.12   False
  152.45   152.59      0.81      0.81   226.41    256.00   16.00   False
  152.50   152.64      1.26      1.26   226.38    242.00   15.56   False
  152.55   152.69      1.73      1.73   226.35    258.00   16.06   False
  152.60   152.74      2.21      2.21   226.32    248.00   15.75   False
  152.65   152.79      2.67      2.67   226.29    235.00   15.33   False
  152.70   152.84      3.09      3.09   226.26    245.00   15.65   False
  152.75   152.89      3.48      3.48   226.23    248.00   15.75   False
  152.80   152.94      3.81      3.81   226.20    281.00   16.76   False
  152.85   152.99      4.10      4.10   226.17    228.00   15.10   False
  152.90   153.04      4.33      4.33   226.14    230.00   15.17   False
  152.95   153.09      4.53      4.53   226.11    212.00   14.56   False
  153.00   153.14      4.68      4.68   226.08    237.00   15.39   False
  153.05   153.19      4.80      4.80   226.05    244.00   15.62   False
  153.10   153.24      4.89      4.89   226.02    231.00   15.20   False
  153.15   153.29      4.96      4.96   225.99    266.00   16.31   False
  153.20   153.34      5.01      5.01   225.96    231.00   15.20   False
  153.25   153.39      5.05      5.05   225.93    234.00   15.30   False
  153.30   153.44      5.08      5.08   225.90    247.00   15.72   False
  153.35   153.49      5.11      5.11   225.87    264.00   16.25   False
  153.40   153.54      5.13      5.13   225.84    247.00   15.72   False
  153.45   153.59      5.16      5.16   225.81    261.00   16.16   False
  153.50   153.64      5.19      5.19   225.78    223.00   14.93   False
  153.55   153.69      5.23      5.23   225.75    242.00   15.56   False
  153.60   153.74      5.28      5.28   225.72    271.00   16.46   False
  153.65   153.79      5.34      5.34   225.69    247.00   15.72   False
  153.70   153.84      5.41      5.41   225.66    249.00   15.78   False
  153.75   153.89      5.51      5.51   225.63    251.00   15.84   False
  153.80   153.94      5.62      5.62   225.60    232.00   15.23   False
  153.85   153.99      5.76      5.76   225.57    225.00   15.00   False
  153.90   154.04      5.92      5.92   225.54    255.00   15.97   False
  153.95   154.09      6.12      6.12   225.52    209.00   14.46   False
  154.00   154.14      6.35      6.35   225.49    266.00   16.31   False
  154.05   154.19      6.62      6.62   225.46    255.00   15.97   False
  154.10   154.24      6.93      6.93   225.43    273.00   16.52   False
  154.15   154.29      7.30      7.30   225.40    250.00   15.81   False
  154.20   154.34      7.71      7.71   225.37    234.00   15.30   False
  154.25   154.39      8.18      8.18   225.34    257.00   16.03   False
  154.30   154.44      8.72      8.72   225.31    250.00   15.81   False
  154.35   154.49      9.33      9.33   225.28    270.00   16.43   False
  154.40   154.54     10.02     10.02   225.25    262.00   16.19   False
  154.45   154.59     10.80     10.80   225.22    281.00   16.76   False
  154.50   154.64     11.67     11.67   225.19    257.00   16.03   False
  154.55   154.69     12.64     12.64   225.16    260.00   16.12   False
  154.60   154.74     13.74     13.74   225.13    257.00   16.03   False
  154.65   154.79     14.96     14.96   225.10    242.00   15.56   False
  154.70   154.84     16.33     16.33   225.07    255.00   15.97   False
  154.75   154.89     17.87     17.87   225.04    250.00   15.81   False
  154.80   154.94     19.58     19.58   225.01    274.00   16.55   False
  154.85   154.99     21.50     21.50   224.98    288.00   16.97   False
  154.90   155.04     23.65     23.65   224.95    275.00   16.58   False
  154.95   155.09     26.05     26.05   224.92    277.00   16.64   False
  155.00   155.14     28.71     28.71   224.89    278.00   16.67   False
  155.05   155.19     31.67     31.67   224.86    264.00   16.25   False
  155.10   155.24     34.95     34.95   224.83    298.00   17.26   False
  155.15   155.29     38.56     38.56   224.80    312.00   17.66   False
  155.20   155.34     42.51     42.51   224.77    282.00   16.79   False
  155.25   155.39     46.81     46.81   224.74    314.00   17.72   False
  155.30   155.44     51.47     51.47   224.71    341.00   18.47   False
  155.35   155.49     56.47     56.47   224.68    314.00   17.72   False
  155.40   155.54     61.80     61.80   224.65    295.00   17.18   False
  155.45   155.59     67.44     67.44   224.62    326.00   18.06   False

loop_pbso4
_pd_peak_index_h
_pd_peak_index_k
_pd_peak_index_l
_pd_peak_index_mult
_pd_peak_2theta
_pd_peak_intensity_plus
_pd_peak_intensity_minus
  1   0   0   2    12.81     0.00     0.00
  0   0   1   2    15.66     0.00     0.00
  0   1   0   2    20.28     0.00     0.00
  1   0   1   4    20.34    17.98    17.98
  1   1   0   4    24.11     0.00     0.00
  0   1   1   4    25.78     5.84     5.84
  2   0   0   2    25.94     1.04     1.04
  1   1   1   8    28.94    17.89    17.89
  2   0   1   4    30.50    40.23    40.23
  0   0   2   2    31.77   104.35   104.35
  2   1   0   4    33.20   226.67   226.67
  1   0   2   4    34.43    51.57    51.57
  2   1   1   8    36.96   341.96   341.96
  0   1   2   4    38.04     0.00     0.00
  3   0   0   2    39.42     0.00     0.00
  1   1   2   8    40.34   336.70   336.70
  0   2   0   2    41.38   149.93   149.93
  2   0   2   4    41.52    53.79    53.79
  3   0   1   4    42.71     2.02     2.02
  1   2   0   4    43.53     0.00     0.00
  0   2   1   4    44.55     0.00     0.00
  3   1   0   4    44.78     0.00     0.00
  1   2   1   8    46.59   212.70   212.70
  2   1   2   8    46.69    63.91    63.91
  3   1   1   8    47.77    71.04    71.04
  0   0   3   2    48.57     0.00     0.00
  2   2   0   4    49.55   199.31   199.31
  1   0   3   4    50.48   133.89   133.89
  3   0   2   4    51.56   283.43   283.43
  2   2   1   8    52.33   475.43   475.43
  0   2   2   4    53.16    78.69    78.69
  0   1   3   4    53.20    68.42    68.42
  4   0   0   2    53.51    38.71    38.71
  1   2   2   8    54.96   299.55   299.55
  1   1   3   8    55.00   345.63   345.63
  2   0   3   4    55.94    56.07    56.07
  3   1   2   8    56.01   213.25   213.25
  4   0   1   4    56.15   283.74   283.74
  4   1   0   4    57.86   199.29   199.29
  3   2   0   4    58.55     0.00     0.00
  2   2   2   8    60.14    18.97    18.97
  2   1   3   8    60.17     8.44     8.44
  4   1   1   8    60.38    15.14    15.14
  3   2   1   8    61.05     0.90     0.90
  4   0   2   4    63.65     9.46     9.46
  0   3   0   2    64.10     0.00     0.00
  3   0   3   4    64.34   122.76   122.76
  1   3   0   4    65.71     0.00     0.00
  0   2   3   4    65.74     0.00     0.00
  0   3   1   4    66.48    26.77    26.77
  0   0   4   2    66.57     9.24     9.24
  1   2   3   8    67.33    77.14    77.14
  4   1   2   8    67.60    37.00    37.00
  1   3   1   8    68.06     0.01     0.01
  1   0   4   4    68.15     0.09     0.09
  3   2   2   8    68.24     0.01     0.01
  3   1   3   8    68.27    39.94    39.94
  5   0   0   2    68.53     0.00     0.00
  4   2   0   4    69.89     2.59     2.59
  2   3   0   4    70.42     5.23     5.23
  0   1   4   4    70.44     0.00     0.00
  5   0   1   4    70.84     0.08     0.08
  1   1   4   8    71.97     0.51     0.51
  2   2   3   8    71.99     2.48     2.48
  4   2   1   8    72.18     4.98     4.98
  5   1   0   4    72.35     0.00     0.00
  2   3   1   8    72.70    31.60    31.60
  2   0   4   4    72.79     0.00     0.00
  0   3   2   4    73.39     0.00     0.00
  5   1   1   8    74.61     0.06     0.06
  1   3   2   8    74.91   230.87   230.87
  4   0   3   4    75.22   114.97   114.97
  2   1   4   8    76.52     5.30     5.30
  5   0   2   4    77.59    30.15    30.15
  3   3   0   4    78.00     0.00     0.00
  4   2   2   8    78.89    19.00    19.00
  4   1   3   8    78.92     6.56     6.56
  2   3   2   8    79.39     0.02     0.02
  3   2   3   8    79.52   194.68   194.68
  3   3   1   8    80.20     4.44     4.44
  3   0   4   4    80.29    17.43    17.43
  5   1   2   8    81.25    32.89    32.89
  0   2   4   4    81.58    27.40    27.40
  1   2   4   8    83.05   132.46   132.46
  5   2   0   4    83.40     0.00     0.00
  3   1   4   8    83.92     2.30     2.30
  0   3   3   4    84.44    60.10    60.10
  6   0   0   2    85.06    22.59    22.59
  5   2   1   8    85.58    48.45    48.45
  1   3   3   8    85.90    84.40    84.40
  0   0   5   2    86.69     0.00     0.00
  3   3   2   8    86.74    94.32    94.32
  6   0   1   4    87.23     0.28     0.28
  2   2   4   8    87.44     1.17     1.17
  1   0   5   4    88.15    79.44    79.44
  4   3   0   4    88.29   203.87   203.87
  5   0   3   4    88.51    19.38    19.38
  6   1   0   4    88.66   110.11   110.11
  4   2   3   8    89.78    19.61    19.61
  0   4   0   2    90.15   243.64   243.64
  2   3   3   8    90.28     0.21     0.21
  0   1   5   4    90.29    69.99    69.99
  4   3   1   8    90.45     0.15     0.15
  4   0   4   4    90.54     2.79     2.79
  6   1   1   8    90.83   127.65   127.65
  1   4   0   4    91.61     0.00     0.00
  1   1   5   8    91.75     0.02     0.02
  5   2   2   8    92.08     1.53     1.53
  5   1   3   8    92.11    29.82    29.82
  0   4   1   4    92.32     0.00     0.00
  2   0   5   4    92.53    10.57    10.57
  6   0   2   4    93.73    26.77    26.77
  1   4   1   8    93.78     4.00     4.00
  4   1   4   8    94.14    19.34    19.34
  3   2   4   8    94.73   243.73   243.73
  2   4   0   4    96.00     1.45     1.45
  2   1   5   8    96.14   100.70   100.70
  4   3   2   8    96.97     0.00     0.00
  6   1   2   8    97.34     0.01     0.01
  3   3   3   8    97.59   126.91   126.91
  2   4   1   8    98.18     3.33     3.33
  0   4   2   4    98.85    19.16    19.16
  6   2   0   4    99.50    69.10    69.10
  0   3   4   4    99.65     0.00     0.00
  3   0   5   4    99.87     8.62     8.62
  1   4   2   8   100.33    24.99    24.99
  1   3   4   8   101.13    32.59    32.59
  0   2   5   4   101.16     0.00     0.00
  5   3   0   4   101.49     0.00     0.00
  6   2   1   8   101.71     4.74     4.74
  1   2   5   8   102.66    31.16    31.16
  5   2   3   8   103.02   421.49   421.49
  3   4   0   4   103.40     0.00     0.00
  3   1   5   8   103.55    39.76    39.76
  5   3   1   8   103.71     2.77     2.77
  5   0   4   4   103.80     8.52     8.52
  7   0   0   2   104.17     0.00     0.00
  6   0   3   4   104.72     6.20     6.20
  2   4   2   8   104.81    17.06    17.06
  4   2   4   8   105.12     9.20     9.20
  2   3   4   8   105.63     1.26     1.26
  3   4   1   8   105.64     0.62     0.62
  7   0   1   4   106.41     1.09     1.09
  2   2   5   8   107.19    74.45    74.45
  5   1   4   8   107.54    27.34    27.34
  7   1   0   4   107.92     0.00     0.00
  4   3   3   8   108.08    11.09    11.09
  6   2   2   8   108.44    58.46    58.46
  6   1   3   8   108.47     0.42     0.42
  0   4   3   4   110.05     0.00     0.00
  7   1   1   8   110.21    12.17    12.17
  4   0   5   4   110.47   125.65   125.65
  5   3   2   8   110.52     1.40     1.40
  0   0   6   2   110.99    36.11    36.11
  1   4   3   8   111.61    48.14    48.14
  3   4   2   8   112.52   122.43   122.43
  1   0   6   4   112.56     3.09     3.09
  7   0   2   4   113.33   110.39   110.39
  3   3   4   8   113.38     0.96     0.96
  4   4   0   4   114.21    17.31    17.31
  4   1   5   8   114.37     0.35     0.35
  0   1   6   4   114.90     0.00     0.00
  3   2   5   8   115.02    22.18    22.18
  2   4   3   8   116.41    27.03    27.03
  1   1   6   8   116.52     0.39     0.39
  4   4   1   8   116.61   165.78   165.78
  7   1   2   8   117.32    59.30    59.30
  2   0   6   4   117.39     2.75     2.75
  6   3   0   4   118.65    78.14    78.14
  5   2   4   8   119.34    46.02    46.02
  7   2   0   4   119.75     0.00     0.00
  6   2   3   8   120.37    16.43    16.43
  0   3   5   4   120.53    72.72    72.72
  6   3   1   8   121.15    15.96    15.96
  6   0   4   4   121.25     0.19     0.19
  2   1   6   8   121.53   131.53   131.53
  1   3   5   8   122.24     8.51     8.51
  7   2   1   8   122.28    59.44    59.44
  5   3   3   8   122.66    69.41    69.41
  4   4   2   8   124.16     5.26     5.26
  0   5   0   2   124.64     0.00     0.00
  3   4   3   8   124.91   115.00   115.00
  4   3   4   8   125.12    10.92    10.92
  5   0   5   4   125.38    33.20    33.20
  6   1   4   8   125.57     3.82     3.82
  7   0   3   4   125.82    48.76    48.76
  3   0   6   4   125.98    23.29    23.29
  1   5   0   4   126.44     0.00     0.00
  4   2   5   8   126.96   125.14   125.14
  0   5   1   4   127.32    21.78    21.78
  0   4   4   4   127.43     8.82     8.82
  0   2   6   4   127.57     0.19     0.19
  2   3   5   8   127.59    71.74    71.74
  8   0   0   2   128.83   120.44   120.44
  6   3   2   8   129.12     0.04     0.04
  1   5   1   8   129.18     4.13     4.13
  1   4   4   8   129.29     1.89     1.89
  1   2   6   8   129.44   103.03   103.03
  5   4   0   4   129.75     0.00     0.00
  5   1   5   8   129.94    14.83    14.83
  7   2   2   8   130.37    89.11    89.11
  7   1   3   8   130.41    62.65    62.65
  3   1   6   8   130.58    12.22    12.22
  8   0   1   4   131.67    17.75    17.75
  2   5   0   4   132.10    93.97    93.97
  5   4   1   8   132.64     0.53     0.53
  8   1   0   4   133.63     0.46     0.46
  2   5   1   8   135.10   114.52   114.52
  2   4   4   8   135.22     0.00     0.00
  2   2   6   8   135.38    72.13    72.13
  0   5   2   4   136.05     0.00     0.00
  8   1   1   8   136.71     3.13     3.13
  3   3   5   8   137.52   166.72   166.72
  1   5   2   8   138.20    21.24    21.24
  4   4   3   8   138.66   125.29   125.29
  4   0   6   4   140.00     0.06     0.06
  6   2   4   8   140.41     7.10     7.10
  8   0   2   4   141.13    22.58    22.58
  5   4   2   8   142.28    28.93    28.93
  3   5   0   4   142.94     0.00     0.00
  5   3   4   8   143.60     0.33     0.33
  7   3   0   4   144.20     0.00     0.00
  6   3   3   8   145.12    13.87    13.87
  2   5   2   8   145.29    73.93    73.93
  4   1   6   8   146.01     3.11     3.11
  5   2   5   8   146.20    69.65    69.65
  3   5   1   8   146.72    40.46    40.46
  7   2   3   8   146.84    44.21    44.21
  3   4   4   8   146.87     8.36     8.36
  3   2   6   8   147.08    98.05    98.05
  8   1   2   8   147.31     3.36     3.36
  7   3   1   8   148.10     7.14     7.14
  0   0   7   2   148.26     0.00     0.00
  7   0   4   4   148.27    20.91    20.91
  6   0   5   4   149.29    41.52    41.52
  1   0   7   4   151.16     0.04     0.04
  8   2   0   4   151.53    76.49    76.49
  0   5   3   4   155.44     7.89     7.89
  0   1   7   4   156.00     1.73     1.73
  7   1   4   8   156.01     0.09     0.09
  4   3   5   8   156.40     0.05     0.05
  8   2   1   8   156.49   122.88   122.88
  6   4   0   4   156.99    29.39    29.39
  6   1   5   8   157.35   116.92   116.92
  0   3   6   4   157.65     0.00     0.00
  1   5   3   8   159.25   310.78   310.78