data_default

_space_group_name_H-M_alt "F d -3 m"
_space_group_IT_coordinate_system_code 2

_cell_length_a 5
_cell_length_b 5
_cell_length_c 5
_cell_angle_alpha 90
_cell_angle_beta 90
_cell_angle_gamma 90

loop_
_atom_site_label
_atom_site_type_symbol
_atom_site_fract_x
_atom_site_fract_y
_atom_site_fract_z
_atom_site_occupancy
_atom_site_adp_type
_atom_site_B_iso_or_equiv
O O 0 0 0 1 Biso 0
